# generated using pymatgen
data_Cu2SnSe4
_symmetry_space_group_name_H-M   'P 1'
_cell_length_a   6.66554255
_cell_length_b   6.66554255
_cell_length_c   6.66554255
_cell_angle_alpha   130.07008009
_cell_angle_beta   130.07008009
_cell_angle_gamma   73.29475509
_symmetry_Int_Tables_number   1
_chemical_formula_structural   Cu2SnSe4
_chemical_formula_sum   'Cu2 Sn1 Se4'
_cell_volume   169.30619202
_cell_formula_units_Z   1
loop_
 _symmetry_equiv_pos_site_id
 _symmetry_equiv_pos_as_xyz
  1  'x, y, z'
loop_
 _atom_site_type_symbol
 _atom_site_label
 _atom_site_symmetry_multiplicity
 _atom_site_fract_x
 _atom_site_fract_y
 _atom_site_fract_z
 _atom_site_occupancy
  Cu  Cu0  1  0.25000000  0.75000000  0.50000000  1
  Cu  Cu1  1  0.75000000  0.25000000  0.50000000  1
  Sn  Sn2  1  0.50000000  0.50000000  0.00000000  1
  Se  Se3  1  0.65082700  0.09275100  0.00000000  1
  Se  Se4  1  0.34917300  0.34917300  0.44192400  1
  Se  Se5  1  0.90724900  0.90724900  0.55807600  1
  Se  Se6  1  0.09275100  0.65082700  0.00000000  1
