# generated using pymatgen
data_Te2Mo3W(Se2S)2
_symmetry_space_group_name_H-M   'P 1'
_cell_length_a   3.34699861
_cell_length_b   3.34699861
_cell_length_c   38.08762500
_cell_angle_alpha   90.00000000
_cell_angle_beta   90.00000000
_cell_angle_gamma   120.00001208
_symmetry_Int_Tables_number   1
_chemical_formula_structural   Te2Mo3W(Se2S)2
_chemical_formula_sum   'Te2 Mo3 W1 Se4 S2'
_cell_volume   369.50943803
_cell_formula_units_Z   1
loop_
 _symmetry_equiv_pos_site_id
 _symmetry_equiv_pos_as_xyz
  1  'x, y, z'
loop_
 _atom_site_type_symbol
 _atom_site_label
 _atom_site_symmetry_multiplicity
 _atom_site_fract_x
 _atom_site_fract_y
 _atom_site_fract_z
 _atom_site_occupancy
  Te  Te0  1  0.33333300  0.66666700  0.33185200  1
  Te  Te1  1  0.33333300  0.66666700  0.23165200  1
  Mo  Mo2  1  0.33333300  0.66666700  0.09391200  1
  Mo  Mo3  1  0.33333300  0.66666700  0.46970700  1
  Mo  Mo4  1  0.66666700  0.33333300  0.65753600  1
  W  W5  1  0.66666700  0.33333300  0.28177200  1
  Se  Se6  1  0.33333300  0.66666700  0.70132800  1
  Se  Se7  1  0.66666700  0.33333300  0.42591900  1
  Se  Se8  1  0.66666700  0.33333300  0.51347800  1
  Se  Se9  1  0.33333300  0.66666700  0.61374300  1
  S  S10  1  0.66666700  0.33333300  0.05407900  1
  S  S11  1  0.66666700  0.33333300  0.13376800  1
