# generated using pymatgen
data_TeMo2Se2S
_symmetry_space_group_name_H-M   'P 1'
_cell_length_a   3.34499059
_cell_length_b   3.34499059
_cell_length_c   38.03378300
_cell_angle_alpha   90.00000000
_cell_angle_beta   90.00000000
_cell_angle_gamma   120.00001173
_symmetry_Int_Tables_number   1
_chemical_formula_structural   TeMo2Se2S
_chemical_formula_sum   'Te2 Mo4 Se4 S2'
_cell_volume   368.54447608
_cell_formula_units_Z   2
loop_
 _symmetry_equiv_pos_site_id
 _symmetry_equiv_pos_as_xyz
  1  'x, y, z'
loop_
 _atom_site_type_symbol
 _atom_site_label
 _atom_site_symmetry_multiplicity
 _atom_site_fract_x
 _atom_site_fract_y
 _atom_site_fract_z
 _atom_site_occupancy
  Te  Te0  1  0.33333300  0.66666700  0.70743100  1
  Te  Te1  1  0.33333300  0.66666700  0.60771100  1
  Mo  Mo2  1  0.33333300  0.66666700  0.09392500  1
  Mo  Mo3  1  0.33333300  0.66666700  0.46963100  1
  Mo  Mo4  1  0.66666700  0.33333300  0.28180500  1
  Mo  Mo5  1  0.66666700  0.33333300  0.65759600  1
  Se  Se6  1  0.33333300  0.66666700  0.32564500  1
  Se  Se7  1  0.66666700  0.33333300  0.42576200  1
  Se  Se8  1  0.66666700  0.33333300  0.51349000  1
  Se  Se9  1  0.33333300  0.66666700  0.23790600  1
  S  S10  1  0.66666700  0.33333300  0.05405100  1
  S  S11  1  0.66666700  0.33333300  0.13379400  1
