# generated using pymatgen
data_K2NaCd
_symmetry_space_group_name_H-M   'P 1'
_cell_length_a   14.37527200
_cell_length_b   14.37527200
_cell_length_c   14.37527200
_cell_angle_alpha   120.93074393
_cell_angle_beta   117.22788624
_cell_angle_gamma   91.63129608
_symmetry_Int_Tables_number   1
_chemical_formula_structural   K2NaCd
_chemical_formula_sum   'K2 Na1 Cd1'
_cell_volume   2126.16431416
_cell_formula_units_Z   1
loop_
 _symmetry_equiv_pos_site_id
 _symmetry_equiv_pos_as_xyz
  1  'x, y, z'
loop_
 _atom_site_type_symbol
 _atom_site_label
 _atom_site_symmetry_multiplicity
 _atom_site_fract_x
 _atom_site_fract_y
 _atom_site_fract_z
 _atom_site_occupancy
  K  K0  1  0.75057000  0.00000000  0.75057000  1
  K  K1  1  0.24943000  0.00000000  0.24943000  1
  Na  Na2  1  0.00000000  0.00000000  0.00000000  1
  Cd  Cd3  1  0.50000000  0.00000000  0.50000000  1
