# generated using pymatgen
data_KCu3GeSe4
_symmetry_space_group_name_H-M   'P 1'
_cell_length_a   6.19523700
_cell_length_b   6.19523700
_cell_length_c   6.19523700
_cell_angle_alpha   90.00000000
_cell_angle_beta   90.00000000
_cell_angle_gamma   90.00000000
_symmetry_Int_Tables_number   1
_chemical_formula_structural   KCu3GeSe4
_chemical_formula_sum   'K1 Cu3 Ge1 Se4'
_cell_volume   237.77915269
_cell_formula_units_Z   1
loop_
 _symmetry_equiv_pos_site_id
 _symmetry_equiv_pos_as_xyz
  1  'x, y, z'
loop_
 _atom_site_type_symbol
 _atom_site_label
 _atom_site_symmetry_multiplicity
 _atom_site_fract_x
 _atom_site_fract_y
 _atom_site_fract_z
 _atom_site_occupancy
  K  K0  1  0.50000000  0.50000000  0.50000000  1
  Cu  Cu1  1  0.00000000  0.50000000  0.00000000  1
  Cu  Cu2  1  0.00000000  0.00000000  0.50000000  1
  Cu  Cu3  1  0.50000000  0.00000000  0.00000000  1
  Ge  Ge4  1  0.00000000  0.00000000  0.00000000  1
  Se  Se5  1  0.21858900  0.21858900  0.21858900  1
  Se  Se6  1  0.78141100  0.78141100  0.21858900  1
  Se  Se7  1  0.21858900  0.78141100  0.78141100  1
  Se  Se8  1  0.78141100  0.21858900  0.78141100  1
