# generated using pymatgen
data_Pr3Pa
_symmetry_space_group_name_H-M   'P 1'
_cell_length_a   7.18485306
_cell_length_b   7.18485306
_cell_length_c   5.90427100
_cell_angle_alpha   90.00000000
_cell_angle_beta   90.00000000
_cell_angle_gamma   119.99999134
_symmetry_Int_Tables_number   1
_chemical_formula_structural   Pr3Pa
_chemical_formula_sum   'Pr6 Pa2'
_cell_volume   263.95672649
_cell_formula_units_Z   2
loop_
 _symmetry_equiv_pos_site_id
 _symmetry_equiv_pos_as_xyz
  1  'x, y, z'
loop_
 _atom_site_type_symbol
 _atom_site_label
 _atom_site_symmetry_multiplicity
 _atom_site_fract_x
 _atom_site_fract_y
 _atom_site_fract_z
 _atom_site_occupancy
  Pr  Pr0  1  0.82994500  0.17005500  0.75000000  1
  Pr  Pr1  1  0.34010900  0.17005500  0.75000000  1
  Pr  Pr2  1  0.82994500  0.65989100  0.75000000  1
  Pr  Pr3  1  0.17005500  0.82994500  0.25000000  1
  Pr  Pr4  1  0.65989100  0.82994500  0.25000000  1
  Pr  Pr5  1  0.17005500  0.34010900  0.25000000  1
  Pa  Pa6  1  0.66666700  0.33333300  0.25000000  1
  Pa  Pa7  1  0.33333300  0.66666700  0.75000000  1
