# generated using pymatgen
data_SrPrAlO4
_symmetry_space_group_name_H-M   'P 1'
_cell_length_a   6.80187528
_cell_length_b   6.80187528
_cell_length_c   6.80187528
_cell_angle_alpha   147.72797260
_cell_angle_beta   147.72797260
_cell_angle_gamma   46.28709574
_symmetry_Int_Tables_number   1
_chemical_formula_structural   SrPrAlO4
_chemical_formula_sum   'Sr1 Pr1 Al1 O4'
_cell_volume   89.40123606
_cell_formula_units_Z   1
loop_
 _symmetry_equiv_pos_site_id
 _symmetry_equiv_pos_as_xyz
  1  'x, y, z'
loop_
 _atom_site_type_symbol
 _atom_site_label
 _atom_site_symmetry_multiplicity
 _atom_site_fract_x
 _atom_site_fract_y
 _atom_site_fract_z
 _atom_site_occupancy
  Sr  Sr0  1  0.64347300  0.64347300  0.00000000  1
  Pr  Pr1  1  0.35944200  0.35944200  0.00000000  1
  Al  Al2  1  0.00444900  0.00444900  0.00000000  1
  O  O3  1  0.83916000  0.83916000  0.00000000  1
  O  O4  1  0.16459900  0.16459900  0.00000000  1
  O  O5  1  0.99443900  0.49443900  0.50000000  1
  O  O6  1  0.49443900  0.99443900  0.50000000  1
