# generated using pymatgen
data_CaMg14ZnO16
_symmetry_space_group_name_H-M   'P 1'
_cell_length_a   4.33066300
_cell_length_b   8.58274300
_cell_length_c   8.61342100
_cell_angle_alpha   90.00000000
_cell_angle_beta   90.00000000
_cell_angle_gamma   90.00000000
_symmetry_Int_Tables_number   1
_chemical_formula_structural   CaMg14ZnO16
_chemical_formula_sum   'Ca1 Mg14 Zn1 O16'
_cell_volume   320.15196563
_cell_formula_units_Z   1
loop_
 _symmetry_equiv_pos_site_id
 _symmetry_equiv_pos_as_xyz
  1  'x, y, z'
loop_
 _atom_site_type_symbol
 _atom_site_label
 _atom_site_symmetry_multiplicity
 _atom_site_fract_x
 _atom_site_fract_y
 _atom_site_fract_z
 _atom_site_occupancy
  Ca  Ca0  1  0.00000000  0.00000000  0.00000000  1
  Mg  Mg1  1  0.00000000  0.00000000  0.50000000  1
  Mg  Mg2  1  0.00000000  0.50000000  0.50000000  1
  Mg  Mg3  1  0.50000000  0.74398700  0.00000000  1
  Mg  Mg4  1  0.50000000  0.25601300  0.00000000  1
  Mg  Mg5  1  0.50000000  0.74933200  0.50000000  1
  Mg  Mg6  1  0.50000000  0.25066800  0.50000000  1
  Mg  Mg7  1  0.50000000  0.00000000  0.74435000  1
  Mg  Mg8  1  0.50000000  0.50000000  0.74985900  1
  Mg  Mg9  1  0.50000000  0.00000000  0.25565000  1
  Mg  Mg10  1  0.50000000  0.50000000  0.25014100  1
  Mg  Mg11  1  0.00000000  0.74654200  0.74658700  1
  Mg  Mg12  1  0.00000000  0.25345800  0.74658700  1
  Mg  Mg13  1  0.00000000  0.74654200  0.25341300  1
  Mg  Mg14  1  0.00000000  0.25345800  0.25341300  1
  Zn  Zn15  1  0.00000000  0.50000000  0.00000000  1
  O  O16  1  0.00000000  0.00000000  0.73670800  1
  O  O17  1  0.00000000  0.50000000  0.74288900  1
  O  O18  1  0.00000000  0.00000000  0.26329200  1
  O  O19  1  0.00000000  0.50000000  0.25711100  1
  O  O20  1  0.50000000  0.75013200  0.75098900  1
  O  O21  1  0.50000000  0.24986800  0.75098900  1
  O  O22  1  0.50000000  0.75013200  0.24901100  1
  O  O23  1  0.50000000  0.24986800  0.24901100  1
  O  O24  1  0.50000000  0.00000000  0.00000000  1
  O  O25  1  0.50000000  0.50000000  0.00000000  1
  O  O26  1  0.50000000  0.00000000  0.50000000  1
  O  O27  1  0.50000000  0.50000000  0.50000000  1
  O  O28  1  0.00000000  0.73841000  0.00000000  1
  O  O29  1  0.00000000  0.26159000  0.00000000  1
  O  O30  1  0.00000000  0.74823400  0.50000000  1
  O  O31  1  0.00000000  0.25176600  0.50000000  1
