# generated using pymatgen
data_Rb3EuF6
_symmetry_space_group_name_H-M   'P 1'
_cell_length_a   7.06940002
_cell_length_b   7.06940002
_cell_length_c   7.06940002
_cell_angle_alpha   119.00272238
_cell_angle_beta   119.00272238
_cell_angle_gamma   91.73619296
_symmetry_Int_Tables_number   1
_chemical_formula_structural   Rb3EuF6
_chemical_formula_sum   'Rb3 Eu1 F6'
_cell_volume   253.46301951
_cell_formula_units_Z   1
loop_
 _symmetry_equiv_pos_site_id
 _symmetry_equiv_pos_as_xyz
  1  'x, y, z'
loop_
 _atom_site_type_symbol
 _atom_site_label
 _atom_site_symmetry_multiplicity
 _atom_site_fract_x
 _atom_site_fract_y
 _atom_site_fract_z
 _atom_site_occupancy
  Rb  Rb0  1  0.75000000  0.25000000  0.50000000  1
  Rb  Rb1  1  0.25000000  0.75000000  0.50000000  1
  Rb  Rb2  1  0.50000000  0.50000000  0.00000000  1
  Eu  Eu3  1  0.00000000  0.00000000  0.00000000  1
  F  F4  1  0.00000000  0.31081300  0.31081300  1
  F  F5  1  0.00000000  0.68918700  0.68918700  1
  F  F6  1  0.31081300  0.00000000  0.31081300  1
  F  F7  1  0.68918700  0.00000000  0.68918700  1
  F  F8  1  0.23446800  0.23446800  0.00000000  1
  F  F9  1  0.76553200  0.76553200  0.00000000  1
