# generated using pymatgen
data_Ho4Rh
_symmetry_space_group_name_H-M   'P 1'
_cell_length_a   7.57685846
_cell_length_b   7.57685846
_cell_length_c   7.57685846
_cell_angle_alpha   60.00000000
_cell_angle_beta   60.00000000
_cell_angle_gamma   60.00000000
_symmetry_Int_Tables_number   1
_chemical_formula_structural   Ho4Rh
_chemical_formula_sum   'Ho8 Rh2'
_cell_volume   307.57605776
_cell_formula_units_Z   2
loop_
 _symmetry_equiv_pos_site_id
 _symmetry_equiv_pos_as_xyz
  1  'x, y, z'
loop_
 _atom_site_type_symbol
 _atom_site_label
 _atom_site_symmetry_multiplicity
 _atom_site_fract_x
 _atom_site_fract_y
 _atom_site_fract_z
 _atom_site_occupancy
  Ho  Ho0  1  0.61106500  0.61106500  0.61106500  1
  Ho  Ho1  1  0.16680500  0.61106500  0.61106500  1
  Ho  Ho2  1  0.61106500  0.16680500  0.61106500  1
  Ho  Ho3  1  0.58319500  0.13893500  0.13893500  1
  Ho  Ho4  1  0.13893500  0.13893500  0.13893500  1
  Ho  Ho5  1  0.61106500  0.61106500  0.16680500  1
  Ho  Ho6  1  0.13893500  0.58319500  0.13893500  1
  Ho  Ho7  1  0.13893500  0.13893500  0.58319500  1
  Rh  Rh8  1  0.00000000  0.00000000  0.00000000  1
  Rh  Rh9  1  0.75000000  0.75000000  0.75000000  1
