# generated using pymatgen
data_Ca2MnSi2
_symmetry_space_group_name_H-M   'P 1'
_cell_length_a   6.11683800
_cell_length_b   6.11683800
_cell_length_c   20.13917700
_cell_angle_alpha   90.00000000
_cell_angle_beta   90.00000000
_cell_angle_gamma   90.00000000
_symmetry_Int_Tables_number   1
_chemical_formula_structural   Ca2MnSi2
_chemical_formula_sum   'Ca2 Mn1 Si2'
_cell_volume   753.52154823
_cell_formula_units_Z   1
loop_
 _symmetry_equiv_pos_site_id
 _symmetry_equiv_pos_as_xyz
  1  'x, y, z'
loop_
 _atom_site_type_symbol
 _atom_site_label
 _atom_site_symmetry_multiplicity
 _atom_site_fract_x
 _atom_site_fract_y
 _atom_site_fract_z
 _atom_site_occupancy
  Ca  Ca0  1  0.50000000  0.50000000  0.16102700  1
  Ca  Ca1  1  0.50000000  0.50000000  0.83897300  1
  Mn  Mn2  1  0.50000000  0.50000000  0.00000000  1
  Si  Si3  1  0.50000000  0.50000000  0.70227700  1
  Si  Si4  1  0.50000000  0.50000000  0.29772300  1
