# generated using pymatgen
data_TaPd
_symmetry_space_group_name_H-M   'P 1'
_cell_length_a   4.95404632
_cell_length_b   4.95404632
_cell_length_c   4.95404706
_cell_angle_alpha   33.74758936
_cell_angle_beta   33.74758936
_cell_angle_gamma   33.74758921
_symmetry_Int_Tables_number   1
_chemical_formula_structural   TaPd
_chemical_formula_sum   'Ta1 Pd1'
_cell_volume   33.43356392
_cell_formula_units_Z   1
loop_
 _symmetry_equiv_pos_site_id
 _symmetry_equiv_pos_as_xyz
  1  'x, y, z'
loop_
 _atom_site_type_symbol
 _atom_site_label
 _atom_site_symmetry_multiplicity
 _atom_site_fract_x
 _atom_site_fract_y
 _atom_site_fract_z
 _atom_site_occupancy
  Ta  Ta0  1  0.50000000  0.50000000  0.50000000  1
  Pd  Pd1  1  0.00000000  0.00000000  0.00000000  1
