# generated using pymatgen
data_Y2CrN3
_symmetry_space_group_name_H-M   'P 1'
_cell_length_a   6.72292984
_cell_length_b   3.37510825
_cell_length_c   12.48305798
_cell_angle_alpha   89.99999430
_cell_angle_beta   21.81414601
_cell_angle_gamma   75.46242932
_symmetry_Int_Tables_number   1
_chemical_formula_structural   Y2CrN3
_chemical_formula_sum   'Y2 Cr1 N3'
_cell_volume   77.61002486
_cell_formula_units_Z   1
loop_
 _symmetry_equiv_pos_site_id
 _symmetry_equiv_pos_as_xyz
  1  'x, y, z'
loop_
 _atom_site_type_symbol
 _atom_site_label
 _atom_site_symmetry_multiplicity
 _atom_site_fract_x
 _atom_site_fract_y
 _atom_site_fract_z
 _atom_site_occupancy
  Y  Y0  1  0.00000000  0.00000000  0.64972900  1
  Y  Y1  1  0.00000000  0.00000000  0.35027100  1
  Cr  Cr2  1  0.00000000  0.00000000  0.00000000  1
  N  N3  1  0.00000000  0.50000000  0.50000000  1
  N  N4  1  0.00000000  0.00000000  0.83890400  1
  N  N5  1  0.00000000  0.00000000  0.16109600  1
