# generated using pymatgen
data_Cs2TmCl4
_symmetry_space_group_name_H-M   'P 1'
_cell_length_a   9.49122795
_cell_length_b   9.49122795
_cell_length_c   9.49122795
_cell_angle_alpha   147.44478775
_cell_angle_beta   147.44478775
_cell_angle_gamma   46.70564972
_symmetry_Int_Tables_number   1
_chemical_formula_structural   Cs2TmCl4
_chemical_formula_sum   'Cs2 Tm1 Cl4'
_cell_volume   246.67683209
_cell_formula_units_Z   1
loop_
 _symmetry_equiv_pos_site_id
 _symmetry_equiv_pos_as_xyz
  1  'x, y, z'
loop_
 _atom_site_type_symbol
 _atom_site_label
 _atom_site_symmetry_multiplicity
 _atom_site_fract_x
 _atom_site_fract_y
 _atom_site_fract_z
 _atom_site_occupancy
  Cs  Cs0  1  0.64258600  0.64258600  0.00000000  1
  Cs  Cs1  1  0.35741400  0.35741400  0.00000000  1
  Tm  Tm2  1  0.00000000  0.00000000  0.00000000  1
  Cl  Cl3  1  0.84552200  0.84552200  0.00000000  1
  Cl  Cl4  1  0.15447800  0.15447800  0.00000000  1
  Cl  Cl5  1  0.50000000  0.00000000  0.50000000  1
  Cl  Cl6  1  0.00000000  0.50000000  0.50000000  1
