# generated using pymatgen
data_BaSr(CoO3)4
_symmetry_space_group_name_H-M   'P 1'
_cell_length_a   5.43294451
_cell_length_b   5.43294451
_cell_length_c   7.60676205
_cell_angle_alpha   90.00000000
_cell_angle_beta   90.00000000
_cell_angle_gamma   90.00000000
_symmetry_Int_Tables_number   1
_chemical_formula_structural   BaSr(CoO3)4
_chemical_formula_sum   'Ba1 Sr1 Co4 O12'
_cell_volume   224.52792863
_cell_formula_units_Z   1
loop_
 _symmetry_equiv_pos_site_id
 _symmetry_equiv_pos_as_xyz
  1  'x, y, z'
loop_
 _atom_site_type_symbol
 _atom_site_label
 _atom_site_symmetry_multiplicity
 _atom_site_fract_x
 _atom_site_fract_y
 _atom_site_fract_z
 _atom_site_occupancy
  Ba  Ba0  1  0.50000000  0.50000000  -0.00000000  1
  Sr  Sr1  1  0.00000000  -0.00000000  0.50000000  1
  Co  Co2  1  0.00000000  0.50000000  0.74752748  1
  Co  Co3  1  -0.00000000  0.50000000  0.25247252  1
  Co  Co4  1  0.50000000  0.00000000  0.25247252  1
  Co  Co5  1  0.50000000  -0.00000000  0.74752748  1
  O  O6  1  0.24595589  0.24595589  0.25518493  1
  O  O7  1  0.24595589  0.24595589  0.74481507  1
  O  O8  1  0.75404411  0.75404411  0.25518493  1
  O  O9  1  0.75404411  0.75404411  0.74481507  1
  O  O10  1  0.75404411  0.24595589  0.74481507  1
  O  O11  1  0.75404411  0.24595589  0.25518493  1
  O  O12  1  0.24595589  0.75404411  0.74481507  1
  O  O13  1  0.24595589  0.75404411  0.25518493  1
  O  O14  1  0.00000000  0.50000000  0.50000000  1
  O  O15  1  -0.00000000  0.50000000  -0.00000000  1
  O  O16  1  0.50000000  -0.00000000  0.50000000  1
  O  O17  1  0.50000000  -0.00000000  -0.00000000  1
