# generated using pymatgen
data_CaEuHfGaO6
_symmetry_space_group_name_H-M   'P 1'
_cell_length_a   5.65063058
_cell_length_b   5.65063058
_cell_length_c   5.65063058
_cell_angle_alpha   60.00000000
_cell_angle_beta   60.00000000
_cell_angle_gamma   60.00000000
_symmetry_Int_Tables_number   1
_chemical_formula_structural   CaEuHfGaO6
_chemical_formula_sum   'Ca1 Eu1 Hf1 Ga1 O6'
_cell_volume   127.57798784
_cell_formula_units_Z   1
loop_
 _symmetry_equiv_pos_site_id
 _symmetry_equiv_pos_as_xyz
  1  'x, y, z'
loop_
 _atom_site_type_symbol
 _atom_site_label
 _atom_site_symmetry_multiplicity
 _atom_site_fract_x
 _atom_site_fract_y
 _atom_site_fract_z
 _atom_site_occupancy
  Ca  Ca0  1  0.25000000  0.25000000  0.25000000  1
  Eu  Eu1  1  0.75000000  0.75000000  0.75000000  1
  Hf  Hf2  1  0.50000000  0.50000000  0.50000000  1
  Ga  Ga3  1  0.00000000  0.00000000  0.00000000  1
  O  O4  1  0.75516079  0.24483921  0.24483921  1
  O  O5  1  0.24483921  0.75516079  0.75516079  1
  O  O6  1  0.75516079  0.24483921  0.75516079  1
  O  O7  1  0.24483921  0.75516079  0.24483921  1
  O  O8  1  0.75516079  0.75516079  0.24483921  1
  O  O9  1  0.24483921  0.24483921  0.75516079  1
