# generated using pymatgen
data_SrNd(CoO3)4
_symmetry_space_group_name_H-M   'P 1'
_cell_length_a   5.34031284
_cell_length_b   5.34031284
_cell_length_c   7.55622510
_cell_angle_alpha   90.00000000
_cell_angle_beta   90.00000000
_cell_angle_gamma   90.00000000
_symmetry_Int_Tables_number   1
_chemical_formula_structural   SrNd(CoO3)4
_chemical_formula_sum   'Sr1 Nd1 Co4 O12'
_cell_volume   215.49553954
_cell_formula_units_Z   1
loop_
 _symmetry_equiv_pos_site_id
 _symmetry_equiv_pos_as_xyz
  1  'x, y, z'
loop_
 _atom_site_type_symbol
 _atom_site_label
 _atom_site_symmetry_multiplicity
 _atom_site_fract_x
 _atom_site_fract_y
 _atom_site_fract_z
 _atom_site_occupancy
  Sr  Sr0  1  -0.00000000  -0.00000000  0.50000000  1
  Nd  Nd1  1  0.50000000  0.50000000  0.00000000  1
  Co  Co2  1  -0.00000000  0.50000000  0.74657506  1
  Co  Co3  1  -0.00000000  0.50000000  0.25342494  1
  Co  Co4  1  0.50000000  -0.00000000  0.25342494  1
  Co  Co5  1  0.50000000  0.00000000  0.74657506  1
  O  O6  1  0.25741291  0.25741291  0.24133092  1
  O  O7  1  0.25741291  0.25741291  0.75866908  1
  O  O8  1  0.74258709  0.74258709  0.24133092  1
  O  O9  1  0.74258709  0.74258709  0.75866908  1
  O  O10  1  0.74258709  0.25741291  0.75866908  1
  O  O11  1  0.74258709  0.25741291  0.24133092  1
  O  O12  1  0.25741291  0.74258709  0.75866908  1
  O  O13  1  0.25741291  0.74258709  0.24133092  1
  O  O14  1  -0.00000000  0.50000000  0.50000000  1
  O  O15  1  -0.00000000  0.50000000  0.00000000  1
  O  O16  1  0.50000000  0.00000000  0.50000000  1
  O  O17  1  0.50000000  -0.00000000  0.00000000  1
