# generated using pymatgen
data_IrC4
_symmetry_space_group_name_H-M   'P 1'
_cell_length_a   3.43829900
_cell_length_b   3.43829900
_cell_length_c   4.40403500
_cell_angle_alpha   90.00000000
_cell_angle_beta   90.00000000
_cell_angle_gamma   90.00000000
_symmetry_Int_Tables_number   1
_chemical_formula_structural   IrC4
_chemical_formula_sum   'Ir1 C4'
_cell_volume   52.06406143
_cell_formula_units_Z   1
loop_
 _symmetry_equiv_pos_site_id
 _symmetry_equiv_pos_as_xyz
  1  'x, y, z'
loop_
 _atom_site_type_symbol
 _atom_site_label
 _atom_site_symmetry_multiplicity
 _atom_site_fract_x
 _atom_site_fract_y
 _atom_site_fract_z
 _atom_site_occupancy
  Ir  Ir0  1  0.00000000  0.00000000  0.00000000  1
  C  C1  1  0.50000000  0.79752800  0.50000000  1
  C  C2  1  0.50000000  0.20247200  0.50000000  1
  C  C3  1  0.79752800  0.50000000  0.50000000  1
  C  C4  1  0.20247200  0.50000000  0.50000000  1
