# generated using pymatgen
data_Ba2TlAg
_symmetry_space_group_name_H-M   'P 1'
_cell_length_a   14.08798281
_cell_length_b   14.08798281
_cell_length_c   14.08798281
_cell_angle_alpha   124.72014725
_cell_angle_beta   118.49584694
_cell_angle_gamma   87.32539901
_symmetry_Int_Tables_number   1
_chemical_formula_structural   Ba2TlAg
_chemical_formula_sum   'Ba2 Tl1 Ag1'
_cell_volume   1919.23590758
_cell_formula_units_Z   1
loop_
 _symmetry_equiv_pos_site_id
 _symmetry_equiv_pos_as_xyz
  1  'x, y, z'
loop_
 _atom_site_type_symbol
 _atom_site_label
 _atom_site_symmetry_multiplicity
 _atom_site_fract_x
 _atom_site_fract_y
 _atom_site_fract_z
 _atom_site_occupancy
  Ba  Ba0  1  0.00000000  0.24561300  0.24561300  1
  Ba  Ba1  1  0.00000000  0.75438700  0.75438700  1
  Tl  Tl2  1  0.00000000  0.50000000  0.50000000  1
  Ag  Ag3  1  0.00000000  0.00000000  0.00000000  1
