# generated using pymatgen
data_Mg2Zn
_symmetry_space_group_name_H-M   'P 1'
_cell_length_a   5.24793969
_cell_length_b   5.24793969
_cell_length_c   4.98427500
_cell_angle_alpha   90.00000000
_cell_angle_beta   90.00000000
_cell_angle_gamma   119.99999610
_symmetry_Int_Tables_number   1
_chemical_formula_structural   Mg2Zn
_chemical_formula_sum   'Mg4 Zn2'
_cell_volume   118.88041584
_cell_formula_units_Z   2
loop_
 _symmetry_equiv_pos_site_id
 _symmetry_equiv_pos_as_xyz
  1  'x, y, z'
loop_
 _atom_site_type_symbol
 _atom_site_label
 _atom_site_symmetry_multiplicity
 _atom_site_fract_x
 _atom_site_fract_y
 _atom_site_fract_z
 _atom_site_occupancy
  Mg  Mg0  1  0.65779500  0.00000000  0.00000000  1
  Mg  Mg1  1  0.00000000  0.65779500  0.00000000  1
  Mg  Mg2  1  0.34220500  0.34220500  0.00000000  1
  Mg  Mg3  1  0.00000000  0.00000000  0.50000000  1
  Zn  Zn4  1  0.33333300  0.66666700  0.50000000  1
  Zn  Zn5  1  0.66666700  0.33333300  0.50000000  1
