# generated using pymatgen
data_MgZr3
_symmetry_space_group_name_H-M   'P 1'
_cell_length_a   5.53181921
_cell_length_b   5.53181921
_cell_length_c   5.53181921
_cell_angle_alpha   132.52407614
_cell_angle_beta   132.52407614
_cell_angle_gamma   69.40255443
_symmetry_Int_Tables_number   1
_chemical_formula_structural   MgZr3
_chemical_formula_sum   'Mg1 Zr3'
_cell_volume   90.20990548
_cell_formula_units_Z   1
loop_
 _symmetry_equiv_pos_site_id
 _symmetry_equiv_pos_as_xyz
  1  'x, y, z'
loop_
 _atom_site_type_symbol
 _atom_site_label
 _atom_site_symmetry_multiplicity
 _atom_site_fract_x
 _atom_site_fract_y
 _atom_site_fract_z
 _atom_site_occupancy
  Mg  Mg0  1  0.00000000  0.00000000  0.00000000  1
  Zr  Zr1  1  0.50000000  0.50000000  0.00000000  1
  Zr  Zr2  1  0.25000000  0.75000000  0.50000000  1
  Zr  Zr3  1  0.75000000  0.25000000  0.50000000  1
