# generated using pymatgen
data_MgZn2Pt
_symmetry_space_group_name_H-M   'P 1'
_cell_length_a   10.28794216
_cell_length_b   10.28794216
_cell_length_c   10.28794216
_cell_angle_alpha   120.48385604
_cell_angle_beta   118.28571559
_cell_angle_gamma   91.07927291
_symmetry_Int_Tables_number   1
_chemical_formula_structural   MgZn2Pt
_chemical_formula_sum   'Mg1 Zn2 Pt1'
_cell_volume   776.62561331
_cell_formula_units_Z   1
loop_
 _symmetry_equiv_pos_site_id
 _symmetry_equiv_pos_as_xyz
  1  'x, y, z'
loop_
 _atom_site_type_symbol
 _atom_site_label
 _atom_site_symmetry_multiplicity
 _atom_site_fract_x
 _atom_site_fract_y
 _atom_site_fract_z
 _atom_site_occupancy
  Mg  Mg0  1  0.00000000  0.00000000  0.00000000  1
  Zn  Zn1  1  0.00000000  0.26344700  0.26344700  1
  Zn  Zn2  1  0.00000000  0.73655300  0.73655300  1
  Pt  Pt3  1  0.00000000  0.50000000  0.50000000  1
