# generated using pymatgen
data_TaAlTc2
_symmetry_space_group_name_H-M   'P 1'
_cell_length_a   10.53539293
_cell_length_b   10.53539293
_cell_length_c   10.53539293
_cell_angle_alpha   126.38105106
_cell_angle_beta   117.96023399
_cell_angle_gamma   86.44473315
_symmetry_Int_Tables_number   1
_chemical_formula_structural   TaAlTc2
_chemical_formula_sum   'Ta1 Al1 Tc2'
_cell_volume   792.23236661
_cell_formula_units_Z   1
loop_
 _symmetry_equiv_pos_site_id
 _symmetry_equiv_pos_as_xyz
  1  'x, y, z'
loop_
 _atom_site_type_symbol
 _atom_site_label
 _atom_site_symmetry_multiplicity
 _atom_site_fract_x
 _atom_site_fract_y
 _atom_site_fract_z
 _atom_site_occupancy
  Ta  Ta0  1  0.00000000  0.50000000  0.50000000  1
  Al  Al1  1  0.00000000  0.00000000  0.00000000  1
  Tc  Tc2  1  0.00000000  0.26383900  0.26383900  1
  Tc  Tc3  1  0.00000000  0.73616100  0.73616100  1
