# generated using pymatgen
data_Be2CuNi
_symmetry_space_group_name_H-M   'P 1'
_cell_length_a   8.81872255
_cell_length_b   8.81872255
_cell_length_c   8.81872255
_cell_angle_alpha   122.33022107
_cell_angle_beta   119.21739021
_cell_angle_gamma   88.68651115
_symmetry_Int_Tables_number   1
_chemical_formula_structural   Be2CuNi
_chemical_formula_sum   'Be2 Cu1 Ni1'
_cell_volume   478.69215750
_cell_formula_units_Z   1
loop_
 _symmetry_equiv_pos_site_id
 _symmetry_equiv_pos_as_xyz
  1  'x, y, z'
loop_
 _atom_site_type_symbol
 _atom_site_label
 _atom_site_symmetry_multiplicity
 _atom_site_fract_x
 _atom_site_fract_y
 _atom_site_fract_z
 _atom_site_occupancy
  Be  Be0  1  0.00000000  0.24757200  0.24757200  1
  Be  Be1  1  0.00000000  0.75242800  0.75242800  1
  Cu  Cu2  1  0.00000000  0.50000000  0.50000000  1
  Ni  Ni3  1  0.00000000  0.00000000  0.00000000  1
