# generated using pymatgen
data_Ti2ZnO4
_symmetry_space_group_name_H-M   'P 1'
_cell_length_a   5.99637203
_cell_length_b   5.99637203
_cell_length_c   5.99637203
_cell_angle_alpha   120.25871609
_cell_angle_beta   118.31188909
_cell_angle_gamma   91.25050616
_symmetry_Int_Tables_number   1
_chemical_formula_structural   Ti2ZnO4
_chemical_formula_sum   'Ti4 Zn2 O8'
_cell_volume   154.01128235
_cell_formula_units_Z   2
loop_
 _symmetry_equiv_pos_site_id
 _symmetry_equiv_pos_as_xyz
  1  'x, y, z'
loop_
 _atom_site_type_symbol
 _atom_site_label
 _atom_site_symmetry_multiplicity
 _atom_site_fract_x
 _atom_site_fract_y
 _atom_site_fract_z
 _atom_site_occupancy
  Ti  Ti0  1  0.00000000  0.50000000  0.50000000  1
  Ti  Ti1  1  0.00000000  0.00000000  0.50000000  1
  Ti  Ti2  1  0.50000000  0.50000000  0.00000000  1
  Ti  Ti3  1  0.00000000  0.50000000  0.00000000  1
  Zn  Zn4  1  0.50000000  0.00000000  0.00000000  1
  Zn  Zn5  1  0.50000000  0.50000000  0.50000000  1
  O  O6  1  0.75378600  0.28273000  0.02894500  1
  O  O7  1  0.23887900  0.74295000  0.49593000  1
  O  O8  1  0.75378600  0.72484100  0.47105500  1
  O  O9  1  0.25298000  0.25705000  0.99593000  1
  O  O10  1  0.24621400  0.27515900  0.52894500  1
  O  O11  1  0.76112100  0.25705000  0.50407000  1
  O  O12  1  0.74702000  0.74295000  0.00407000  1
  O  O13  1  0.24621400  0.71727000  0.97105500  1
