# generated using pymatgen
data_Mg3Cu2(GeO4)3
_symmetry_space_group_name_H-M   'P 1'
_cell_length_a   10.38337786
_cell_length_b   10.38337786
_cell_length_c   10.38337786
_cell_angle_alpha   109.47122063
_cell_angle_beta   109.47122063
_cell_angle_gamma   109.47122063
_symmetry_Int_Tables_number   1
_chemical_formula_structural   Mg3Cu2(GeO4)3
_chemical_formula_sum   'Mg12 Cu8 Ge12 O48'
_cell_volume   861.77538404
_cell_formula_units_Z   4
loop_
 _symmetry_equiv_pos_site_id
 _symmetry_equiv_pos_as_xyz
  1  'x, y, z'
loop_
 _atom_site_type_symbol
 _atom_site_label
 _atom_site_symmetry_multiplicity
 _atom_site_fract_x
 _atom_site_fract_y
 _atom_site_fract_z
 _atom_site_occupancy
  Mg  Mg0  1  0.25000000  0.87500000  0.62500000  1
  Mg  Mg1  1  0.75000000  0.62500000  0.87500000  1
  Mg  Mg2  1  0.62500000  0.87500000  0.75000000  1
  Mg  Mg3  1  0.87500000  0.62500000  0.25000000  1
  Mg  Mg4  1  0.62500000  0.25000000  0.87500000  1
  Mg  Mg5  1  0.87500000  0.75000000  0.62500000  1
  Mg  Mg6  1  0.75000000  0.12500000  0.37500000  1
  Mg  Mg7  1  0.25000000  0.37500000  0.12500000  1
  Mg  Mg8  1  0.37500000  0.12500000  0.25000000  1
  Mg  Mg9  1  0.12500000  0.37500000  0.75000000  1
  Mg  Mg10  1  0.37500000  0.75000000  0.12500000  1
  Mg  Mg11  1  0.12500000  0.25000000  0.37500000  1
  Cu  Cu12  1  0.50000000  0.50000000  0.50000000  1
  Cu  Cu13  1  0.50000000  0.00000000  0.50000000  1
  Cu  Cu14  1  0.00000000  0.50000000  0.50000000  1
  Cu  Cu15  1  0.50000000  0.50000000  0.00000000  1
  Cu  Cu16  1  0.00000000  0.00000000  0.50000000  1
  Cu  Cu17  1  0.00000000  0.50000000  0.00000000  1
  Cu  Cu18  1  0.50000000  0.00000000  0.00000000  1
  Cu  Cu19  1  0.00000000  0.00000000  0.00000000  1
  Ge  Ge20  1  0.12500000  0.75000000  0.87500000  1
  Ge  Ge21  1  0.87500000  0.25000000  0.12500000  1
  Ge  Ge22  1  0.62500000  0.37500000  0.25000000  1
  Ge  Ge23  1  0.75000000  0.87500000  0.12500000  1
  Ge  Ge24  1  0.87500000  0.12500000  0.75000000  1
  Ge  Ge25  1  0.25000000  0.62500000  0.37500000  1
  Ge  Ge26  1  0.75000000  0.37500000  0.62500000  1
  Ge  Ge27  1  0.25000000  0.12500000  0.87500000  1
  Ge  Ge28  1  0.12500000  0.87500000  0.25000000  1
  Ge  Ge29  1  0.37500000  0.62500000  0.75000000  1
  Ge  Ge30  1  0.62500000  0.75000000  0.37500000  1
  Ge  Ge31  1  0.37500000  0.25000000  0.62500000  1
  O  O32  1  0.41849000  0.81925300  0.78955800  1
  O  O33  1  0.87106800  0.40076300  0.08151000  1
  O  O34  1  0.09923700  0.97030500  0.68074700  1
  O  O35  1  0.52969500  0.62893200  0.71044200  1
  O  O36  1  0.68074700  0.08151000  0.71044200  1
  O  O37  1  0.62893200  0.71044200  0.52969500  1
  O  O38  1  0.62893200  0.41849000  0.09923700  1
  O  O39  1  0.71044200  0.52969500  0.62893200  1
  O  O40  1  0.81925300  0.52969500  0.40076300  1
  O  O41  1  0.97030500  0.78955800  0.87106800  1
  O  O42  1  0.78955800  0.87106800  0.97030500  1
  O  O43  1  0.71044200  0.68074700  0.08151000  1
  O  O44  1  0.41849000  0.09923700  0.62893200  1
  O  O45  1  0.40076300  0.81925300  0.52969500  1
  O  O46  1  0.08151000  0.71044200  0.68074700  1
  O  O47  1  0.09923700  0.62893200  0.41849000  1
  O  O48  1  0.52969500  0.40076300  0.81925300  1
  O  O49  1  0.08151000  0.87106800  0.40076300  1
  O  O50  1  0.97030500  0.68074700  0.09923700  1
  O  O51  1  0.18074700  0.47030500  0.59923700  1
  O  O52  1  0.68074700  0.09923700  0.97030500  1
  O  O53  1  0.78955800  0.41849000  0.81925300  1
  O  O54  1  0.40076300  0.08151000  0.87106800  1
  O  O55  1  0.87106800  0.97030500  0.78955800  1
  O  O56  1  0.58151000  0.18074700  0.21044200  1
  O  O57  1  0.12893200  0.59923700  0.91849000  1
  O  O58  1  0.90076300  0.02969500  0.31925300  1
  O  O59  1  0.47030500  0.37106800  0.28955800  1
  O  O60  1  0.31925300  0.91849000  0.28955800  1
  O  O61  1  0.37106800  0.28955800  0.47030500  1
  O  O62  1  0.37106800  0.58151000  0.90076300  1
  O  O63  1  0.28955800  0.47030500  0.37106800  1
  O  O64  1  0.12893200  0.02969500  0.21044200  1
  O  O65  1  0.59923700  0.91849000  0.12893200  1
  O  O66  1  0.21044200  0.58151000  0.18074700  1
  O  O67  1  0.18074700  0.21044200  0.58151000  1
  O  O68  1  0.31925300  0.90076300  0.02969500  1
  O  O69  1  0.02969500  0.31925300  0.90076300  1
  O  O70  1  0.91849000  0.12893200  0.59923700  1
  O  O71  1  0.47030500  0.59923700  0.18074700  1
  O  O72  1  0.90076300  0.37106800  0.58151000  1
  O  O73  1  0.91849000  0.28955800  0.31925300  1
  O  O74  1  0.59923700  0.18074700  0.47030500  1
  O  O75  1  0.58151000  0.90076300  0.37106800  1
  O  O76  1  0.28955800  0.31925300  0.91849000  1
  O  O77  1  0.21044200  0.12893200  0.02969500  1
  O  O78  1  0.02969500  0.21044200  0.12893200  1
  O  O79  1  0.81925300  0.78955800  0.41849000  1
