# generated using pymatgen
data_W2SeS3
_symmetry_space_group_name_H-M   'P 1'
_cell_length_a   3.22127836
_cell_length_b   3.22127836
_cell_length_c   36.40122800
_cell_angle_alpha   90.00000000
_cell_angle_beta   90.00000000
_cell_angle_gamma   120.00000746
_symmetry_Int_Tables_number   1
_chemical_formula_structural   W2SeS3
_chemical_formula_sum   'W4 Se2 S6'
_cell_volume   327.11702284
_cell_formula_units_Z   2
loop_
 _symmetry_equiv_pos_site_id
 _symmetry_equiv_pos_as_xyz
  1  'x, y, z'
loop_
 _atom_site_type_symbol
 _atom_site_label
 _atom_site_symmetry_multiplicity
 _atom_site_fract_x
 _atom_site_fract_y
 _atom_site_fract_z
 _atom_site_occupancy
  W  W0  1  0.33333300  0.66666700  0.09390800  1
  W  W1  1  0.33333300  0.66666700  0.46965600  1
  W  W2  1  0.66666700  0.33333300  0.28180500  1
  W  W3  1  0.66666700  0.33333300  0.65755700  1
  Se  Se4  1  0.33333300  0.66666700  0.70483600  1
  Se  Se5  1  0.33333300  0.66666700  0.61027400  1
  S  S6  1  0.33333300  0.66666700  0.32470400  1
  S  S7  1  0.66666700  0.33333300  0.05099500  1
  S  S8  1  0.66666700  0.33333300  0.42675100  1
  S  S9  1  0.66666700  0.33333300  0.13682300  1
  S  S10  1  0.66666700  0.33333300  0.51255100  1
  S  S11  1  0.33333300  0.66666700  0.23889000  1
