# generated using pymatgen
data_YMg14VO16
_symmetry_space_group_name_H-M   'P 1'
_cell_length_a   4.38321900
_cell_length_b   8.69619200
_cell_length_c   8.72808400
_cell_angle_alpha   90.00000000
_cell_angle_beta   90.00000000
_cell_angle_gamma   90.00000000
_symmetry_Int_Tables_number   1
_chemical_formula_structural   YMg14VO16
_chemical_formula_sum   'Y1 Mg14 V1 O16'
_cell_volume   332.69111846
_cell_formula_units_Z   1
loop_
 _symmetry_equiv_pos_site_id
 _symmetry_equiv_pos_as_xyz
  1  'x, y, z'
loop_
 _atom_site_type_symbol
 _atom_site_label
 _atom_site_symmetry_multiplicity
 _atom_site_fract_x
 _atom_site_fract_y
 _atom_site_fract_z
 _atom_site_occupancy
  Y  Y0  1  0.00000000  0.00000000  0.00000000  1
  Mg  Mg1  1  0.00000000  0.50000000  0.00000000  1
  Mg  Mg2  1  0.00000000  0.50000000  0.50000000  1
  Mg  Mg3  1  0.50000000  0.00000000  0.26193800  1
  Mg  Mg4  1  0.50000000  0.00000000  0.73806200  1
  Mg  Mg5  1  0.50000000  0.50000000  0.25294600  1
  Mg  Mg6  1  0.50000000  0.50000000  0.74705400  1
  Mg  Mg7  1  0.50000000  0.26247300  0.00000000  1
  Mg  Mg8  1  0.50000000  0.25249300  0.50000000  1
  Mg  Mg9  1  0.50000000  0.73752700  0.00000000  1
  Mg  Mg10  1  0.50000000  0.74750700  0.50000000  1
  Mg  Mg11  1  0.00000000  0.25735400  0.25734400  1
  Mg  Mg12  1  0.00000000  0.25735400  0.74265600  1
  Mg  Mg13  1  0.00000000  0.74264600  0.25734400  1
  Mg  Mg14  1  0.00000000  0.74264600  0.74265600  1
  V  V15  1  0.00000000  0.00000000  0.50000000  1
  O  O16  1  0.00000000  0.26056200  0.00000000  1
  O  O17  1  0.00000000  0.25572400  0.50000000  1
  O  O18  1  0.00000000  0.73943800  0.00000000  1
  O  O19  1  0.00000000  0.74427600  0.50000000  1
  O  O20  1  0.50000000  0.24967800  0.25027700  1
  O  O21  1  0.50000000  0.24967800  0.74972300  1
  O  O22  1  0.50000000  0.75032200  0.25027700  1
  O  O23  1  0.50000000  0.75032200  0.74972300  1
  O  O24  1  0.50000000  0.00000000  0.00000000  1
  O  O25  1  0.50000000  0.00000000  0.50000000  1
  O  O26  1  0.50000000  0.50000000  0.00000000  1
  O  O27  1  0.50000000  0.50000000  0.50000000  1
  O  O28  1  0.00000000  0.00000000  0.25648000  1
  O  O29  1  0.00000000  0.00000000  0.74352000  1
  O  O30  1  0.00000000  0.50000000  0.25152200  1
  O  O31  1  0.00000000  0.50000000  0.74847800  1
