# generated using pymatgen
data_Ca2PAu
_symmetry_space_group_name_H-M   'P 1'
_cell_length_a   11.92301629
_cell_length_b   11.92301629
_cell_length_c   11.92301629
_cell_angle_alpha   126.15997487
_cell_angle_beta   117.97273335
_cell_angle_gamma   86.61223963
_symmetry_Int_Tables_number   1
_chemical_formula_structural   Ca2PAu
_chemical_formula_sum   'Ca2 P1 Au1'
_cell_volume   1150.89722478
_cell_formula_units_Z   1
loop_
 _symmetry_equiv_pos_site_id
 _symmetry_equiv_pos_as_xyz
  1  'x, y, z'
loop_
 _atom_site_type_symbol
 _atom_site_label
 _atom_site_symmetry_multiplicity
 _atom_site_fract_x
 _atom_site_fract_y
 _atom_site_fract_z
 _atom_site_occupancy
  Ca  Ca0  1  0.00000000  0.23051700  0.23051700  1
  Ca  Ca1  1  0.00000000  0.76948300  0.76948300  1
  P  P2  1  0.00000000  0.00000000  0.00000000  1
  Au  Au3  1  0.00000000  0.50000000  0.50000000  1
