# generated using pymatgen
data_BeAsRu2
_symmetry_space_group_name_H-M   'P 1'
_cell_length_a   9.76888628
_cell_length_b   9.76888628
_cell_length_c   9.76888628
_cell_angle_alpha   123.97697936
_cell_angle_beta   118.49806196
_cell_angle_gamma   87.93754847
_symmetry_Int_Tables_number   1
_chemical_formula_structural   BeAsRu2
_chemical_formula_sum   'Be1 As1 Ru2'
_cell_volume   644.48570460
_cell_formula_units_Z   1
loop_
 _symmetry_equiv_pos_site_id
 _symmetry_equiv_pos_as_xyz
  1  'x, y, z'
loop_
 _atom_site_type_symbol
 _atom_site_label
 _atom_site_symmetry_multiplicity
 _atom_site_fract_x
 _atom_site_fract_y
 _atom_site_fract_z
 _atom_site_occupancy
  Be  Be0  1  0.00000000  0.00000000  0.00000000  1
  As  As1  1  0.00000000  0.50000000  0.50000000  1
  Ru  Ru2  1  0.00000000  0.25385400  0.25385400  1
  Ru  Ru3  1  0.00000000  0.74614600  0.74614600  1
