# generated using pymatgen
data_Zn2AgRh
_symmetry_space_group_name_H-M   'P 1'
_cell_length_a   10.62947754
_cell_length_b   10.62947754
_cell_length_c   10.62947754
_cell_angle_alpha   124.75370535
_cell_angle_beta   118.22457574
_cell_angle_gamma   87.53674690
_symmetry_Int_Tables_number   1
_chemical_formula_structural   Zn2AgRh
_chemical_formula_sum   'Zn2 Ag1 Rh1'
_cell_volume   825.71876948
_cell_formula_units_Z   1
loop_
 _symmetry_equiv_pos_site_id
 _symmetry_equiv_pos_as_xyz
  1  'x, y, z'
loop_
 _atom_site_type_symbol
 _atom_site_label
 _atom_site_symmetry_multiplicity
 _atom_site_fract_x
 _atom_site_fract_y
 _atom_site_fract_z
 _atom_site_occupancy
  Zn  Zn0  1  0.00000000  0.24374400  0.24374400  1
  Zn  Zn1  1  0.00000000  0.75625600  0.75625600  1
  Ag  Ag2  1  0.00000000  0.50000000  0.50000000  1
  Rh  Rh3  1  0.00000000  0.00000000  0.00000000  1
