# generated using pymatgen
data_TaBeRh2
_symmetry_space_group_name_H-M   'P 1'
_cell_length_a   10.44081013
_cell_length_b   10.44081013
_cell_length_c   10.44081013
_cell_angle_alpha   128.86183127
_cell_angle_beta   117.23108459
_cell_angle_gamma   85.12254504
_symmetry_Int_Tables_number   1
_chemical_formula_structural   TaBeRh2
_chemical_formula_sum   'Ta1 Be1 Rh2'
_cell_volume   753.70367276
_cell_formula_units_Z   1
loop_
 _symmetry_equiv_pos_site_id
 _symmetry_equiv_pos_as_xyz
  1  'x, y, z'
loop_
 _atom_site_type_symbol
 _atom_site_label
 _atom_site_symmetry_multiplicity
 _atom_site_fract_x
 _atom_site_fract_y
 _atom_site_fract_z
 _atom_site_occupancy
  Ta  Ta0  1  0.00000000  0.50000000  0.50000000  1
  Be  Be1  1  0.00000000  0.00000000  0.00000000  1
  Rh  Rh2  1  0.00000000  0.25916100  0.25916100  1
  Rh  Rh3  1  0.00000000  0.74083900  0.74083900  1
