# generated using pymatgen
data_Yb(GaS2)2
_symmetry_space_group_name_H-M   'P 1'
_cell_length_a   5.86460907
_cell_length_b   5.86460907
_cell_length_c   10.09137600
_cell_angle_alpha   90.00000000
_cell_angle_beta   90.00000000
_cell_angle_gamma   117.98766648
_symmetry_Int_Tables_number   1
_chemical_formula_structural   Yb(GaS2)2
_chemical_formula_sum   'Yb2 Ga4 S8'
_cell_volume   306.48776707
_cell_formula_units_Z   2
loop_
 _symmetry_equiv_pos_site_id
 _symmetry_equiv_pos_as_xyz
  1  'x, y, z'
loop_
 _atom_site_type_symbol
 _atom_site_label
 _atom_site_symmetry_multiplicity
 _atom_site_fract_x
 _atom_site_fract_y
 _atom_site_fract_z
 _atom_site_occupancy
  Yb  Yb0  1  0.50000000  0.50000000  0.75000000  1
  Yb  Yb1  1  0.50000000  0.50000000  0.25000000  1
  Ga  Ga2  1  0.76904000  0.23542500  0.50000000  1
  Ga  Ga3  1  0.23096000  0.76457500  0.50000000  1
  Ga  Ga4  1  0.76457500  0.23096000  0.00000000  1
  Ga  Ga5  1  0.23542500  0.76904000  0.00000000  1
  S  S6  1  0.35293100  0.19580600  0.50000000  1
  S  S7  1  0.64706900  0.80419400  0.50000000  1
  S  S8  1  0.80419400  0.64706900  0.00000000  1
  S  S9  1  0.19580600  0.35293100  0.00000000  1
  S  S10  1  0.50000000  0.00000000  0.82692700  1
  S  S11  1  0.00000000  0.50000000  0.67307300  1
  S  S12  1  0.50000000  0.00000000  0.17307300  1
  S  S13  1  0.00000000  0.50000000  0.32692700  1
