# generated using pymatgen
data_AcO
_symmetry_space_group_name_H-M   'P 1'
_cell_length_a   4.38039048
_cell_length_b   4.38039048
_cell_length_c   5.62903200
_cell_angle_alpha   90.00000000
_cell_angle_beta   90.00000000
_cell_angle_gamma   119.99997710
_symmetry_Int_Tables_number   1
_chemical_formula_structural   AcO
_chemical_formula_sum   'Ac2 O2'
_cell_volume   93.53843579
_cell_formula_units_Z   2
loop_
 _symmetry_equiv_pos_site_id
 _symmetry_equiv_pos_as_xyz
  1  'x, y, z'
loop_
 _atom_site_type_symbol
 _atom_site_label
 _atom_site_symmetry_multiplicity
 _atom_site_fract_x
 _atom_site_fract_y
 _atom_site_fract_z
 _atom_site_occupancy
  Ac  Ac0  1  0.00000000  0.00000000  0.93890400  1
  Ac  Ac1  1  0.33333200  0.66666600  0.43890400  1
  O  O2  1  0.00000000  0.00000000  0.43609400  1
  O  O3  1  0.33333200  0.66666600  0.93609600  1
