# generated using pymatgen
data_Mg16Al12Se
_symmetry_space_group_name_H-M   'P 1'
_cell_length_a   9.06786679
_cell_length_b   9.06786679
_cell_length_c   9.06786684
_cell_angle_alpha   108.87409651
_cell_angle_beta   108.87409651
_cell_angle_gamma   108.87409498
_symmetry_Int_Tables_number   1
_chemical_formula_structural   Mg16Al12Se
_chemical_formula_sum   'Mg16 Al12 Se1'
_cell_volume   586.32178609
_cell_formula_units_Z   1
loop_
 _symmetry_equiv_pos_site_id
 _symmetry_equiv_pos_as_xyz
  1  'x, y, z'
loop_
 _atom_site_type_symbol
 _atom_site_label
 _atom_site_symmetry_multiplicity
 _atom_site_fract_x
 _atom_site_fract_y
 _atom_site_fract_z
 _atom_site_occupancy
  Mg  Mg0  1  0.00012700  0.00012700  0.34602000  1
  Mg  Mg1  1  0.97197100  0.97197100  0.97197100  1
  Mg  Mg2  1  0.68870900  0.68870900  0.28990600  1
  Mg  Mg3  1  0.41152600  0.41152600  0.70689400  1
  Mg  Mg4  1  0.59813300  0.32387400  0.00266000  1
  Mg  Mg5  1  0.70689400  0.41152600  0.41152600  1
  Mg  Mg6  1  0.32387400  0.00266000  0.59813300  1
  Mg  Mg7  1  0.34602000  0.00012700  0.00012700  1
  Mg  Mg8  1  0.68870900  0.28990600  0.68870900  1
  Mg  Mg9  1  0.00266000  0.59813300  0.32387400  1
  Mg  Mg10  1  0.59813300  0.00266000  0.32387400  1
  Mg  Mg11  1  0.28990600  0.68870900  0.68870900  1
  Mg  Mg12  1  0.00012700  0.34602000  0.00012700  1
  Mg  Mg13  1  0.00266000  0.32387400  0.59813300  1
  Mg  Mg14  1  0.41152600  0.70689400  0.41152600  1
  Mg  Mg15  1  0.32387400  0.59813300  0.00266000  1
  Al  Al16  1  0.18881300  0.18881300  0.80980900  1
  Al  Al17  1  0.35349000  0.35349000  0.16419500  1
  Al  Al18  1  0.82445600  0.63681200  0.01276500  1
  Al  Al19  1  0.01276500  0.82445600  0.63681200  1
  Al  Al20  1  0.35349000  0.16419500  0.35349000  1
  Al  Al21  1  0.01276500  0.63681200  0.82445600  1
  Al  Al22  1  0.18881300  0.80980900  0.18881300  1
  Al  Al23  1  0.80980900  0.18881300  0.18881300  1
  Al  Al24  1  0.63681200  0.01276500  0.82445600  1
  Al  Al25  1  0.16419500  0.35349000  0.35349000  1
  Al  Al26  1  0.82445600  0.01276500  0.63681200  1
  Al  Al27  1  0.63681200  0.82445600  0.01276500  1
  Se  Se28  1  0.62849500  0.62849500  0.62849500  1
