# generated using pymatgen
data_Na2CoAuF6
_symmetry_space_group_name_H-M   'P 1'
_cell_length_a   5.95460900
_cell_length_b   5.95460868
_cell_length_c   5.95460918
_cell_angle_alpha   60.00000111
_cell_angle_beta   59.99999545
_cell_angle_gamma   59.99999264
_symmetry_Int_Tables_number   1
_chemical_formula_structural   Na2CoAuF6
_chemical_formula_sum   'Na2 Co1 Au1 F6'
_cell_volume   149.29480802
_cell_formula_units_Z   1
loop_
 _symmetry_equiv_pos_site_id
 _symmetry_equiv_pos_as_xyz
  1  'x, y, z'
loop_
 _atom_site_type_symbol
 _atom_site_label
 _atom_site_symmetry_multiplicity
 _atom_site_fract_x
 _atom_site_fract_y
 _atom_site_fract_z
 _atom_site_occupancy
  Na  Na0  1  0.25000000  0.25000000  0.25000000  1
  Na  Na1  1  0.75000000  0.75000000  0.75000000  1
  Co  Co2  1  0.00000000  0.00000000  0.00000000  1
  Au  Au3  1  0.50000000  0.50000000  0.50000000  1
  F  F4  1  0.22420300  0.77579700  0.22420300  1
  F  F5  1  0.77579700  0.77579700  0.22420300  1
  F  F6  1  0.77579700  0.22420300  0.77579700  1
  F  F7  1  0.77579700  0.22420300  0.22420300  1
  F  F8  1  0.22420300  0.77579700  0.77579700  1
  F  F9  1  0.22420300  0.22420300  0.77579700  1
