# generated using pymatgen
data_Ge7HO20
_symmetry_space_group_name_H-M   'P 1'
_cell_length_a   7.86737300
_cell_length_b   7.86737300
_cell_length_c   7.86737300
_cell_angle_alpha   90.00000000
_cell_angle_beta   90.00000000
_cell_angle_gamma   90.00000000
_symmetry_Int_Tables_number   1
_chemical_formula_structural   Ge7HO20
_chemical_formula_sum   'Ge7 H1 O20'
_cell_volume   486.95544121
_cell_formula_units_Z   1
loop_
 _symmetry_equiv_pos_site_id
 _symmetry_equiv_pos_as_xyz
  1  'x, y, z'
loop_
 _atom_site_type_symbol
 _atom_site_label
 _atom_site_symmetry_multiplicity
 _atom_site_fract_x
 _atom_site_fract_y
 _atom_site_fract_z
 _atom_site_occupancy
  Ge  Ge0  1  0.00000000  0.50000000  0.50000000  1
  Ge  Ge1  1  0.50000000  0.50000000  0.00000000  1
  Ge  Ge2  1  0.50000000  0.00000000  0.50000000  1
  Ge  Ge3  1  0.65631900  0.65631900  0.34368100  1
  Ge  Ge4  1  0.65631900  0.34368100  0.65631900  1
  Ge  Ge5  1  0.34368100  0.65631900  0.65631900  1
  Ge  Ge6  1  0.34368100  0.34368100  0.34368100  1
  H  H7  1  0.50000000  0.50000000  0.50000000  1
  O  O8  1  0.88151800  0.63439100  0.36560900  1
  O  O9  1  0.63439100  0.63439100  0.11848200  1
  O  O10  1  0.63439100  0.88151800  0.36560900  1
  O  O11  1  0.88151800  0.36560900  0.63439100  1
  O  O12  1  0.63439100  0.36560900  0.88151800  1
  O  O13  1  0.63439100  0.11848200  0.63439100  1
  O  O14  1  0.11848200  0.63439100  0.63439100  1
  O  O15  1  0.36560900  0.63439100  0.88151800  1
  O  O16  1  0.36560900  0.88151800  0.63439100  1
  O  O17  1  0.11848200  0.36560900  0.36560900  1
  O  O18  1  0.36560900  0.36560900  0.11848200  1
  O  O19  1  0.36560900  0.11848200  0.36560900  1
  O  O20  1  0.39018700  0.39018700  0.60981300  1
  O  O21  1  0.39018700  0.60981300  0.39018700  1
  O  O22  1  0.60981300  0.39018700  0.39018700  1
  O  O23  1  0.60981300  0.60981300  0.60981300  1
  O  O24  1  0.19496900  0.19496900  0.80503100  1
  O  O25  1  0.19496900  0.80503100  0.19496900  1
  O  O26  1  0.80503100  0.19496900  0.19496900  1
  O  O27  1  0.80503100  0.80503100  0.80503100  1
