# generated using pymatgen
data_Nb2SiSb2
_symmetry_space_group_name_H-M   'P 1'
_cell_length_a   2.87406300
_cell_length_b   2.87406300
_cell_length_c   14.78395400
_cell_angle_alpha   90.00000000
_cell_angle_beta   90.00000000
_cell_angle_gamma   90.00000000
_symmetry_Int_Tables_number   1
_chemical_formula_structural   Nb2SiSb2
_chemical_formula_sum   'Nb2 Si1 Sb2'
_cell_volume   122.11898051
_cell_formula_units_Z   1
loop_
 _symmetry_equiv_pos_site_id
 _symmetry_equiv_pos_as_xyz
  1  'x, y, z'
loop_
 _atom_site_type_symbol
 _atom_site_label
 _atom_site_symmetry_multiplicity
 _atom_site_fract_x
 _atom_site_fract_y
 _atom_site_fract_z
 _atom_site_occupancy
  Nb  Nb0  1  0.50000000  0.50000000  0.17005300  1
  Nb  Nb1  1  0.50000000  0.50000000  0.82994700  1
  Si  Si2  1  0.50000000  0.50000000  0.00000000  1
  Sb  Sb3  1  0.50000000  0.50000000  0.63310500  1
  Sb  Sb4  1  0.50000000  0.50000000  0.36689500  1
