# generated using pymatgen
data_La2Fe2S2O3
_symmetry_space_group_name_H-M   'P 1'
_cell_length_a   9.53208566
_cell_length_b   9.53208566
_cell_length_c   9.53208566
_cell_angle_alpha   155.48300788
_cell_angle_beta   155.48300788
_cell_angle_gamma   34.94757755
_symmetry_Int_Tables_number   1
_chemical_formula_structural   La2Fe2S2O3
_chemical_formula_sum   'La2 Fe2 S2 O3'
_cell_volume   148.96980606
_cell_formula_units_Z   1
loop_
 _symmetry_equiv_pos_site_id
 _symmetry_equiv_pos_as_xyz
  1  'x, y, z'
loop_
 _atom_site_type_symbol
 _atom_site_label
 _atom_site_symmetry_multiplicity
 _atom_site_fract_x
 _atom_site_fract_y
 _atom_site_fract_z
 _atom_site_occupancy
  La  La0  1  0.18180100  0.18180100  0.00000000  1
  La  La1  1  0.81819900  0.81819900  0.00000000  1
  Fe  Fe2  1  0.50000000  0.00000000  0.50000000  1
  Fe  Fe3  1  0.00000000  0.50000000  0.50000000  1
  S  S4  1  0.40491500  0.40491500  0.00000000  1
  S  S5  1  0.59508500  0.59508500  0.00000000  1
  O  O6  1  0.75000000  0.25000000  0.50000000  1
  O  O7  1  0.25000000  0.75000000  0.50000000  1
  O  O8  1  0.00000000  0.00000000  0.00000000  1
