# generated using pymatgen
data_NaSr2LaTi4O12
_symmetry_space_group_name_H-M   'P 1'
_cell_length_a   5.54127700
_cell_length_b   5.54127700
_cell_length_c   7.88572500
_cell_angle_alpha   90.00000000
_cell_angle_beta   90.00000000
_cell_angle_gamma   90.00000000
_symmetry_Int_Tables_number   1
_chemical_formula_structural   NaSr2LaTi4O12
_chemical_formula_sum   'Na1 Sr2 La1 Ti4 O12'
_cell_volume   242.13710665
_cell_formula_units_Z   1
loop_
 _symmetry_equiv_pos_site_id
 _symmetry_equiv_pos_as_xyz
  1  'x, y, z'
loop_
 _atom_site_type_symbol
 _atom_site_label
 _atom_site_symmetry_multiplicity
 _atom_site_fract_x
 _atom_site_fract_y
 _atom_site_fract_z
 _atom_site_occupancy
  Na  Na0  1  0.50000000  0.50000000  0.00000000  1
  Sr  Sr1  1  0.00000000  0.00000000  0.50000000  1
  Sr  Sr2  1  0.50000000  0.50000000  0.50000000  1
  La  La3  1  0.00000000  0.00000000  0.00000000  1
  Ti  Ti4  1  0.00000000  0.50000000  0.24799100  1
  Ti  Ti5  1  0.50000000  0.00000000  0.75200900  1
  Ti  Ti6  1  0.50000000  0.00000000  0.24799100  1
  Ti  Ti7  1  0.00000000  0.50000000  0.75200900  1
  O  O8  1  0.21691500  0.21691500  0.75354700  1
  O  O9  1  0.72808000  0.72808000  0.24850900  1
  O  O10  1  0.27192000  0.27192000  0.24850900  1
  O  O11  1  0.78308500  0.78308500  0.75354700  1
  O  O12  1  0.78308500  0.21691500  0.24645300  1
  O  O13  1  0.27192000  0.72808000  0.75149100  1
  O  O14  1  0.21691500  0.78308500  0.24645300  1
  O  O15  1  0.72808000  0.27192000  0.75149100  1
  O  O16  1  0.00000000  0.50000000  0.00000000  1
  O  O17  1  0.50000000  0.00000000  0.50000000  1
  O  O18  1  0.50000000  0.00000000  0.00000000  1
  O  O19  1  0.00000000  0.50000000  0.50000000  1
