# generated using pymatgen
data_Cu4I3Cl
_symmetry_space_group_name_H-M   'P 1'
_cell_length_a   3.97694700
_cell_length_b   5.59421800
_cell_length_c   7.92205500
_cell_angle_alpha   90.00000000
_cell_angle_beta   90.00000000
_cell_angle_gamma   90.00000000
_symmetry_Int_Tables_number   1
_chemical_formula_structural   Cu4I3Cl
_chemical_formula_sum   'Cu4 I3 Cl1'
_cell_volume   176.24915471
_cell_formula_units_Z   1
loop_
 _symmetry_equiv_pos_site_id
 _symmetry_equiv_pos_as_xyz
  1  'x, y, z'
loop_
 _atom_site_type_symbol
 _atom_site_label
 _atom_site_symmetry_multiplicity
 _atom_site_fract_x
 _atom_site_fract_y
 _atom_site_fract_z
 _atom_site_occupancy
  Cu  Cu0  1  0.00000000  0.00000000  0.50000000  1
  Cu  Cu1  1  0.50000000  0.50000000  0.75530000  1
  Cu  Cu2  1  0.00000000  0.00000000  0.00000000  1
  Cu  Cu3  1  0.50000000  0.50000000  0.24470000  1
  I  I4  1  0.50000000  0.00000000  0.24289500  1
  I  I5  1  0.00000000  0.50000000  0.50000000  1
  I  I6  1  0.50000000  0.00000000  0.75710500  1
  Cl  Cl7  1  0.00000000  0.50000000  0.00000000  1
