# generated using pymatgen
data_PrEu2SbO6
_symmetry_space_group_name_H-M   'P 1'
_cell_length_a   8.49680174
_cell_length_b   8.49680174
_cell_length_c   8.49680174
_cell_angle_alpha   90.00000000
_cell_angle_beta   90.00000000
_cell_angle_gamma   90.00000000
_symmetry_Int_Tables_number   1
_chemical_formula_structural   PrEu2SbO6
_chemical_formula_sum   'Pr4 Eu8 Sb4 O24'
_cell_volume   613.43203795
_cell_formula_units_Z   4
loop_
 _symmetry_equiv_pos_site_id
 _symmetry_equiv_pos_as_xyz
  1  'x, y, z'
loop_
 _atom_site_type_symbol
 _atom_site_label
 _atom_site_symmetry_multiplicity
 _atom_site_fract_x
 _atom_site_fract_y
 _atom_site_fract_z
 _atom_site_occupancy
  Pr  Pr0  1  0.75000000  0.75000000  0.75000000  1
  Pr  Pr1  1  0.75000000  0.25000000  0.25000000  1
  Pr  Pr2  1  0.25000000  0.75000000  0.25000000  1
  Pr  Pr3  1  0.25000000  0.25000000  0.75000000  1
  Eu  Eu4  1  0.50000000  0.50000000  0.50000000  1
  Eu  Eu5  1  0.00000000  -0.00000000  0.00000000  1
  Eu  Eu6  1  0.00000000  -0.00000000  0.50000000  1
  Eu  Eu7  1  0.00000000  0.50000000  0.00000000  1
  Eu  Eu8  1  0.50000000  -0.00000000  0.00000000  1
  Eu  Eu9  1  0.50000000  0.50000000  0.00000000  1
  Eu  Eu10  1  0.50000000  -0.00000000  0.50000000  1
  Eu  Eu11  1  0.00000000  0.50000000  0.50000000  1
  Sb  Sb12  1  0.25000000  0.25000000  0.25000000  1
  Sb  Sb13  1  0.25000000  0.75000000  0.75000000  1
  Sb  Sb14  1  0.75000000  0.25000000  0.75000000  1
  Sb  Sb15  1  0.75000000  0.75000000  0.25000000  1
  O  O16  1  0.21071999  0.29847577  0.47915157  1
  O  O17  1  0.21071999  0.70152423  0.52084843  1
  O  O18  1  0.78928001  0.29847577  0.52084843  1
  O  O19  1  0.78928001  0.70152423  0.47915157  1
  O  O20  1  0.29847577  0.47915157  0.21071999  1
  O  O21  1  0.70152423  0.52084843  0.21071999  1
  O  O22  1  0.29847577  0.52084843  0.78928001  1
  O  O23  1  0.70152423  0.47915157  0.78928001  1
  O  O24  1  0.47915157  0.21071999  0.29847577  1
  O  O25  1  0.52084843  0.21071999  0.70152423  1
  O  O26  1  0.52084843  0.78928001  0.29847577  1
  O  O27  1  0.47915157  0.78928001  0.70152423  1
  O  O28  1  0.28928001  0.20152423  0.02084843  1
  O  O29  1  0.28928001  0.79847577  0.97915157  1
  O  O30  1  0.71071999  0.20152423  0.97915157  1
  O  O31  1  0.71071999  0.79847577  0.02084843  1
  O  O32  1  0.20152423  0.02084843  0.28928001  1
  O  O33  1  0.79847577  0.97915157  0.28928001  1
  O  O34  1  0.20152423  0.97915157  0.71071999  1
  O  O35  1  0.79847577  0.02084843  0.71071999  1
  O  O36  1  0.02084843  0.28928001  0.20152423  1
  O  O37  1  0.97915157  0.28928001  0.79847577  1
  O  O38  1  0.97915157  0.71071999  0.20152423  1
  O  O39  1  0.02084843  0.71071999  0.79847577  1
