# generated using pymatgen
data_BaSrMn4O12
_symmetry_space_group_name_H-M   'P 1'
_cell_length_a   5.46508316
_cell_length_b   5.46508316
_cell_length_c   7.71319262
_cell_angle_alpha   90.00000000
_cell_angle_beta   90.00000000
_cell_angle_gamma   90.00000000
_symmetry_Int_Tables_number   1
_chemical_formula_structural   BaSrMn4O12
_chemical_formula_sum   'Ba1 Sr1 Mn4 O12'
_cell_volume   230.37095713
_cell_formula_units_Z   1
loop_
 _symmetry_equiv_pos_site_id
 _symmetry_equiv_pos_as_xyz
  1  'x, y, z'
loop_
 _atom_site_type_symbol
 _atom_site_label
 _atom_site_symmetry_multiplicity
 _atom_site_fract_x
 _atom_site_fract_y
 _atom_site_fract_z
 _atom_site_occupancy
  Ba  Ba0  1  0.50000000  0.50000000  -0.00000000  1
  Sr  Sr1  1  -0.00000000  0.00000000  0.50000000  1
  Mn  Mn2  1  -0.00000000  0.50000000  0.74796525  1
  Mn  Mn3  1  -0.00000000  0.50000000  0.25203475  1
  Mn  Mn4  1  0.50000000  -0.00000000  0.74796525  1
  Mn  Mn5  1  0.50000000  0.00000000  0.25203475  1
  O  O6  1  0.24420982  0.24420982  0.74331510  1
  O  O7  1  0.24420982  0.24420982  0.25668490  1
  O  O8  1  0.75579018  0.75579018  0.74331510  1
  O  O9  1  0.75579018  0.75579018  0.25668490  1
  O  O10  1  0.75579018  0.24420982  0.74331510  1
  O  O11  1  0.75579018  0.24420982  0.25668490  1
  O  O12  1  0.24420982  0.75579018  0.74331510  1
  O  O13  1  0.24420982  0.75579018  0.25668490  1
  O  O14  1  -0.00000000  0.50000000  0.50000000  1
  O  O15  1  -0.00000000  0.50000000  -0.00000000  1
  O  O16  1  0.50000000  0.00000000  0.50000000  1
  O  O17  1  0.50000000  0.00000000  -0.00000000  1
