# generated using pymatgen
data_PrTl(MoO4)2
_symmetry_space_group_name_H-M   'P 1'
_cell_length_a   6.41509300
_cell_length_b   6.41509300
_cell_length_c   9.76429200
_cell_angle_alpha   90.00000000
_cell_angle_beta   90.00000000
_cell_angle_gamma   90.00000000
_symmetry_Int_Tables_number   1
_chemical_formula_structural   PrTl(MoO4)2
_chemical_formula_sum   'Pr2 Tl2 Mo4 O16'
_cell_volume   401.83399209
_cell_formula_units_Z   2
loop_
 _symmetry_equiv_pos_site_id
 _symmetry_equiv_pos_as_xyz
  1  'x, y, z'
loop_
 _atom_site_type_symbol
 _atom_site_label
 _atom_site_symmetry_multiplicity
 _atom_site_fract_x
 _atom_site_fract_y
 _atom_site_fract_z
 _atom_site_occupancy
  Pr  Pr0  1  0.50000000  0.50000000  0.50000000  1
  Pr  Pr1  1  0.00000000  0.00000000  0.00000000  1
  Tl  Tl2  1  0.50000000  0.50000000  0.00000000  1
  Tl  Tl3  1  0.00000000  0.00000000  0.50000000  1
  Mo  Mo4  1  0.00000000  0.50000000  0.75000000  1
  Mo  Mo5  1  0.00000000  0.50000000  0.25000000  1
  Mo  Mo6  1  0.50000000  0.00000000  0.75000000  1
  Mo  Mo7  1  0.50000000  0.00000000  0.25000000  1
  O  O8  1  0.88528000  0.69280100  0.86044300  1
  O  O9  1  0.11472000  0.30719900  0.86044300  1
  O  O10  1  0.11472000  0.69280100  0.13955700  1
  O  O11  1  0.88528000  0.30719900  0.13955700  1
  O  O12  1  0.61472000  0.80719900  0.63955700  1
  O  O13  1  0.38528000  0.19280100  0.63955700  1
  O  O14  1  0.38528000  0.80719900  0.36044300  1
  O  O15  1  0.61472000  0.19280100  0.36044300  1
  O  O16  1  0.69280100  0.88528000  0.13955700  1
  O  O17  1  0.30719900  0.11472000  0.13955700  1
  O  O18  1  0.69280100  0.11472000  0.86044300  1
  O  O19  1  0.30719900  0.88528000  0.86044300  1
  O  O20  1  0.80719900  0.61472000  0.36044300  1
  O  O21  1  0.19280100  0.38528000  0.36044300  1
  O  O22  1  0.80719900  0.38528000  0.63955700  1
  O  O23  1  0.19280100  0.61472000  0.63955700  1
