data_image0
_chemical_formula_structural       B4C4Pr2
_chemical_formula_sum              "B4 C4 Pr2"
_cell_length_a       5.39776
_cell_length_b       5.39776
_cell_length_c       3.86743
_cell_angle_alpha    90
_cell_angle_beta     90
_cell_angle_gamma    90

_space_group_name_H-M_alt    "P 1"
_space_group_IT_number       1

loop_
  _space_group_symop_operation_xyz
  'x, y, z'

loop_
  _atom_site_type_symbol
  _atom_site_label
  _atom_site_symmetry_multiplicity
  _atom_site_fract_x
  _atom_site_fract_y
  _atom_site_fract_z
  _atom_site_occupancy
  B   B1        1.0  0.63800  0.13800  0.50000  1.0000
  B   B2        1.0  0.13800  0.36200  0.50000  1.0000
  B   B3        1.0  0.86200  0.63800  0.50000  1.0000
  B   B4        1.0  0.36200  0.86200  0.50000  1.0000
  C   C1        1.0  0.33900  0.16100  0.50000  1.0000
  C   C2        1.0  0.83900  0.33900  0.50000  1.0000
  C   C3        1.0  0.16100  0.66100  0.50000  1.0000
  C   C4        1.0  0.66100  0.83900  0.50000  1.0000
  Pr  Pr1       1.0  0.00000  0.00000  0.00000  1.0000
  Pr  Pr2       1.0  0.50000  0.50000  0.00000  1.0000
