data_image0
_chemical_formula_structural       Ba2LaNbO6
_chemical_formula_sum              "Ba2 La1 Nb1 O6"
_cell_length_a       6.08867
_cell_length_b       6.08867
_cell_length_c       6.13985
_cell_angle_alpha    90.4209
_cell_angle_beta     119.413
_cell_angle_gamma    119.825

_space_group_name_H-M_alt    "P 1"
_space_group_IT_number       1

loop_
  _space_group_symop_operation_xyz
  'x, y, z'

loop_
  _atom_site_type_symbol
  _atom_site_label
  _atom_site_symmetry_multiplicity
  _atom_site_fract_x
  _atom_site_fract_y
  _atom_site_fract_z
  _atom_site_occupancy
  Ba  Ba1       1.0  0.99200  0.24900  0.24100  1.0000
  Ba  Ba2       1.0  0.00767  0.75100  0.75900  1.0000
  La  La1       1.0  0.50000  0.00000  0.50000  1.0000
  Nb  Nb1       1.0  0.50000  0.50000  0.00000  1.0000
  O   O1        1.0  0.49400  0.22700  0.18700  1.0000
  O   O2        1.0  0.96000  0.69300  0.18700  1.0000
  O   O3        1.0  0.57300  0.72900  0.30100  1.0000
  O   O4        1.0  0.42700  0.27100  0.69900  1.0000
  O   O5        1.0  0.03980  0.30700  0.81300  1.0000
  O   O6        1.0  0.50600  0.77300  0.81300  1.0000
