data_image0
_chemical_formula_structural       In2Ni4Sm4
_chemical_formula_sum              "In2 Ni4 Sm4"
_cell_length_a       7.46731
_cell_length_b       7.46731
_cell_length_c       3.75725
_cell_angle_alpha    90
_cell_angle_beta     90
_cell_angle_gamma    90

_space_group_name_H-M_alt    "P 1"
_space_group_IT_number       1

loop_
  _space_group_symop_operation_xyz
  'x, y, z'

loop_
  _atom_site_type_symbol
  _atom_site_label
  _atom_site_symmetry_multiplicity
  _atom_site_fract_x
  _atom_site_fract_y
  _atom_site_fract_z
  _atom_site_occupancy
  In  In1       1.0  0.00000  0.00000  0.00000  1.0000
  In  In2       1.0  0.50000  0.50000  0.00000  1.0000
  Ni  Ni1       1.0  0.62000  0.12000  0.00000  1.0000
  Ni  Ni2       1.0  0.12000  0.38000  0.00000  1.0000
  Ni  Ni3       1.0  0.88000  0.62000  0.00000  1.0000
  Ni  Ni4       1.0  0.38000  0.88000  0.00000  1.0000
  Sm  Sm1       1.0  0.32600  0.17400  0.50000  1.0000
  Sm  Sm2       1.0  0.82600  0.32600  0.50000  1.0000
  Sm  Sm3       1.0  0.17400  0.67400  0.50000  1.0000
  Sm  Sm4       1.0  0.67400  0.82600  0.50000  1.0000
