data_image0
_chemical_formula_structural       CuLi2O2
_chemical_formula_sum              "Cu1 Li2 O2"
_cell_length_a       2.85541
_cell_length_b       3.44471
_cell_length_c       5.10774
_cell_angle_alpha    80.2896
_cell_angle_beta     90.0071
_cell_angle_gamma    114.508

_space_group_name_H-M_alt    "P 1"
_space_group_IT_number       1

loop_
  _space_group_symop_operation_xyz
  'x, y, z'

loop_
  _atom_site_type_symbol
  _atom_site_label
  _atom_site_symmetry_multiplicity
  _atom_site_fract_x
  _atom_site_fract_y
  _atom_site_fract_z
  _atom_site_occupancy
  Cu  Cu1       1.0  0.50000  1.00000  0.00000  1.0000
  Li  Li1       1.0  0.16800  0.33600  0.35100  1.0000
  Li  Li2       1.0  0.83200  0.66300  0.64900  1.0000
  O   O1        1.0  0.88300  0.76600  0.25100  1.0000
  O   O2        1.0  0.11700  0.23500  0.74900  1.0000
