data_image0
_chemical_formula_structural       Mg2O4Si
_chemical_formula_sum              "Mg2 O4 Si1"
_cell_length_a       3.46956
_cell_length_b       3.46956
_cell_length_c       5.82525
_cell_angle_alpha    107.326
_cell_angle_beta     107.326
_cell_angle_gamma    90

_space_group_name_H-M_alt    "P 1"
_space_group_IT_number       1

loop_
  _space_group_symop_operation_xyz
  'x, y, z'

loop_
  _atom_site_type_symbol
  _atom_site_label
  _atom_site_symmetry_multiplicity
  _atom_site_fract_x
  _atom_site_fract_y
  _atom_site_fract_z
  _atom_site_occupancy
  Mg  Mg1       1.0  0.65000  0.65000  0.29900  1.0000
  Mg  Mg2       1.0  0.35000  0.35000  0.70100  1.0000
  O   O1        1.0  0.50000  0.00000  0.00000  1.0000
  O   O2        1.0  0.00000  0.50000  0.00000  1.0000
  O   O3        1.0  0.16800  0.16800  0.33600  1.0000
  O   O4        1.0  0.83200  0.83200  0.66400  1.0000
  Si  Si1       1.0  0.00000  0.00000  0.00000  1.0000
