data_image0
_chemical_formula_structural       Ge2Sn2Tb2
_chemical_formula_sum              "Ge2 Sn2 Tb2"
_cell_length_a       4.07563
_cell_length_b       4.29873
_cell_length_c       8.50406
_cell_angle_alpha    75.3599
_cell_angle_beta     90
_cell_angle_gamma    90

_space_group_name_H-M_alt    "P 1"
_space_group_IT_number       1

loop_
  _space_group_symop_operation_xyz
  'x, y, z'

loop_
  _atom_site_type_symbol
  _atom_site_label
  _atom_site_symmetry_multiplicity
  _atom_site_fract_x
  _atom_site_fract_y
  _atom_site_fract_z
  _atom_site_occupancy
  Ge  Ge1       1.0  0.75000  0.44700  0.10600  1.0000
  Ge  Ge2       1.0  0.25000  0.55300  0.89400  1.0000
  Sn  Sn1       1.0  0.25000  0.25400  0.49200  1.0000
  Sn  Sn2       1.0  0.75000  0.74600  0.50800  1.0000
  Tb  Tb1       1.0  0.25000  0.90500  0.19000  1.0000
  Tb  Tb2       1.0  0.75000  0.09480  0.81000  1.0000
