data_image0
_chemical_formula_structural       Cl4MnRb2
_chemical_formula_sum              "Cl4 Mn1 Rb2"
_cell_length_a       5.04432
_cell_length_b       5.04432
_cell_length_c       8.87621
_cell_angle_alpha    106.508
_cell_angle_beta     106.508
_cell_angle_gamma    90

_space_group_name_H-M_alt    "P 1"
_space_group_IT_number       1

loop_
  _space_group_symop_operation_xyz
  'x, y, z'

loop_
  _atom_site_type_symbol
  _atom_site_label
  _atom_site_symmetry_multiplicity
  _atom_site_fract_x
  _atom_site_fract_y
  _atom_site_fract_z
  _atom_site_occupancy
  Cl  Cl1       1.0  0.50000  0.00000  0.00000  1.0000
  Cl  Cl2       1.0  0.00000  0.50000  0.00000  1.0000
  Cl  Cl3       1.0  0.15600  0.15600  0.31300  1.0000
  Cl  Cl4       1.0  0.84400  0.84400  0.68700  1.0000
  Mn  Mn1       1.0  0.00000  0.00000  0.00000  1.0000
  Rb  Rb1       1.0  0.64300  0.64300  0.28500  1.0000
  Rb  Rb2       1.0  0.35700  0.35700  0.71500  1.0000
