data_image0
_chemical_formula_structural       Al2ErGe2
_chemical_formula_sum              "Al2 Er1 Ge2"
_cell_length_a       4.2694
_cell_length_b       4.26951
_cell_length_c       6.56357
_cell_angle_alpha    90
_cell_angle_beta     90.0015
_cell_angle_gamma    120.001

_space_group_name_H-M_alt    "P 1"
_space_group_IT_number       1

loop_
  _space_group_symop_operation_xyz
  'x, y, z'

loop_
  _atom_site_type_symbol
  _atom_site_label
  _atom_site_symmetry_multiplicity
  _atom_site_fract_x
  _atom_site_fract_y
  _atom_site_fract_z
  _atom_site_occupancy
  Al  Al1       1.0  0.66700  0.33300  0.35500  1.0000
  Al  Al2       1.0  0.33300  0.66700  0.64500  1.0000
  Er  Er1       1.0  0.00000  0.00000  0.00000  1.0000
  Ge  Ge1       1.0  0.33300  0.66700  0.25400  1.0000
  Ge  Ge2       1.0  0.66700  0.33300  0.74600  1.0000
