data_image0
_chemical_formula_structural       Cu4Hf3Si4
_chemical_formula_sum              "Cu4 Hf3 Si4"
_cell_length_a       3.90942
_cell_length_b       6.35991
_cell_length_c       7.49557
_cell_angle_alpha    115.103
_cell_angle_beta     105.116
_cell_angle_gamma    90

_space_group_name_H-M_alt    "P 1"
_space_group_IT_number       1

loop_
  _space_group_symop_operation_xyz
  'x, y, z'

loop_
  _atom_site_type_symbol
  _atom_site_label
  _atom_site_symmetry_multiplicity
  _atom_site_fract_x
  _atom_site_fract_y
  _atom_site_fract_z
  _atom_site_occupancy
  Cu  Cu1       1.0  0.67000  0.47700  0.33900  1.0000
  Cu  Cu2       1.0  0.67000  0.86300  0.33900  1.0000
  Cu  Cu3       1.0  0.33000  0.13700  0.66100  1.0000
  Cu  Cu4       1.0  0.33000  0.52300  0.66100  1.0000
  Hf  Hf1       1.0  0.00000  0.50000  0.00000  1.0000
  Hf  Hf2       1.0  0.12400  0.12400  0.24800  1.0000
  Hf  Hf3       1.0  0.87600  0.87600  0.75200  1.0000
  Si  Si1       1.0  0.50000  0.19200  0.00000  1.0000
  Si  Si2       1.0  0.50000  0.80800  0.00000  1.0000
  Si  Si3       1.0  0.21600  0.71600  0.43200  1.0000
  Si  Si4       1.0  0.78400  0.28400  0.56800  1.0000
