data_image0
_chemical_formula_structural       Ge4Mg2Sm4
_chemical_formula_sum              "Ge4 Mg2 Sm4"
_cell_length_a       7.39192
_cell_length_b       7.39192
_cell_length_c       4.34106
_cell_angle_alpha    90
_cell_angle_beta     90
_cell_angle_gamma    90

_space_group_name_H-M_alt    "P 1"
_space_group_IT_number       1

loop_
  _space_group_symop_operation_xyz
  'x, y, z'

loop_
  _atom_site_type_symbol
  _atom_site_label
  _atom_site_symmetry_multiplicity
  _atom_site_fract_x
  _atom_site_fract_y
  _atom_site_fract_z
  _atom_site_occupancy
  Ge  Ge1       1.0  0.62200  0.12200  0.00000  1.0000
  Ge  Ge2       1.0  0.12200  0.37800  0.00000  1.0000
  Ge  Ge3       1.0  0.87800  0.62200  0.00000  1.0000
  Ge  Ge4       1.0  0.37800  0.87800  0.00000  1.0000
  Mg  Mg1       1.0  0.00000  0.00000  0.00000  1.0000
  Mg  Mg2       1.0  0.50000  0.50000  0.00000  1.0000
  Sm  Sm1       1.0  0.32200  0.17800  0.50000  1.0000
  Sm  Sm2       1.0  0.82200  0.32200  0.50000  1.0000
  Sm  Sm3       1.0  0.17800  0.67800  0.50000  1.0000
  Sm  Sm4       1.0  0.67800  0.82200  0.50000  1.0000
