data_image0
_chemical_formula_structural       C2H2K2O6
_chemical_formula_sum              "C2 H2 K2 O6"
_cell_length_a       6.13928
_cell_length_b       5.37759
_cell_length_c       4.27059
_cell_angle_alpha    95.5023
_cell_angle_beta     100.711
_cell_angle_gamma    108.36

_space_group_name_H-M_alt    "P 1"
_space_group_IT_number       1

loop_
  _space_group_symop_operation_xyz
  'x, y, z'

loop_
  _atom_site_type_symbol
  _atom_site_label
  _atom_site_symmetry_multiplicity
  _atom_site_fract_x
  _atom_site_fract_y
  _atom_site_fract_z
  _atom_site_occupancy
  C   C1        1.0  0.77000  0.42700  0.09670  1.0000
  C   C2        1.0  0.23000  0.57300  0.90300  1.0000
  H   H1        1.0  0.92300  0.29500  0.46900  1.0000
  H   H2        1.0  0.07740  0.70500  0.53100  1.0000
  K   K1        1.0  0.29900  0.13400  0.28900  1.0000
  K   K2        1.0  0.70100  0.86600  0.71100  1.0000
  O   O1        1.0  0.37300  0.63800  0.17300  1.0000
  O   O2        1.0  0.89400  0.66600  0.23400  1.0000
  O   O3        1.0  0.79200  0.22600  0.25500  1.0000
  O   O4        1.0  0.20800  0.77400  0.74500  1.0000
  O   O5        1.0  0.10600  0.33400  0.76600  1.0000
  O   O6        1.0  0.62700  0.36200  0.82700  1.0000
