data_image0
_chemical_formula_structural       GdRu4Sn6
_chemical_formula_sum              "Gd1 Ru4 Sn6"
_cell_length_a       6.90956
_cell_length_b       6.90956
_cell_length_c       6.94357
_cell_angle_alpha    119.838
_cell_angle_beta     119.838
_cell_angle_gamma    90

_space_group_name_H-M_alt    "P 1"
_space_group_IT_number       1

loop_
  _space_group_symop_operation_xyz
  'x, y, z'

loop_
  _atom_site_type_symbol
  _atom_site_label
  _atom_site_symmetry_multiplicity
  _atom_site_fract_x
  _atom_site_fract_y
  _atom_site_fract_z
  _atom_site_occupancy
  Gd  Gd1       1.0  0.00000  0.00000  0.00000  1.0000
  Ru  Ru1       1.0  0.40600  0.40600  0.15600  1.0000
  Ru  Ru2       1.0  0.75000  0.75000  0.15600  1.0000
  Ru  Ru3       1.0  0.59400  0.25000  0.84400  1.0000
  Ru  Ru4       1.0  0.25000  0.59400  0.84400  1.0000
  Sn  Sn1       1.0  0.50000  0.00000  0.00000  1.0000
  Sn  Sn2       1.0  0.00000  0.50000  0.00000  1.0000
  Sn  Sn3       1.0  0.88300  0.53000  0.41300  1.0000
  Sn  Sn4       1.0  0.53000  0.88300  0.41300  1.0000
  Sn  Sn5       1.0  0.11700  0.11700  0.58700  1.0000
  Sn  Sn6       1.0  0.47000  0.47000  0.58700  1.0000
