data_image0
_chemical_formula_structural       O2PTi3
_chemical_formula_sum              "O2 P1 Ti3"
_cell_length_a       3.15979
_cell_length_b       3.15981
_cell_length_c       7.95759
_cell_angle_alpha    90
_cell_angle_beta     90.0005
_cell_angle_gamma    120

_space_group_name_H-M_alt    "P 1"
_space_group_IT_number       1

loop_
  _space_group_symop_operation_xyz
  'x, y, z'

loop_
  _atom_site_type_symbol
  _atom_site_label
  _atom_site_symmetry_multiplicity
  _atom_site_fract_x
  _atom_site_fract_y
  _atom_site_fract_z
  _atom_site_occupancy
  O   O1        1.0  0.66700  0.33300  0.14300  1.0000
  O   O2        1.0  0.33300  0.66700  0.85700  1.0000
  P   P1        1.0  0.00000  0.00000  0.50000  1.0000
  Ti  Ti1       1.0  0.00000  0.00000  0.00000  1.0000
  Ti  Ti2       1.0  0.33300  0.66700  0.29100  1.0000
  Ti  Ti3       1.0  0.66700  0.33300  0.70900  1.0000
