data_image0
_chemical_formula_structural       O7Si2Y2
_chemical_formula_sum              "O7 Si2 Y2"
_cell_length_a       4.71805
_cell_length_b       5.65715
_cell_length_c       5.65715
_cell_angle_alpha    105.057
_cell_angle_beta     97.0329
_cell_angle_gamma    97.0329

_space_group_name_H-M_alt    "P 1"
_space_group_IT_number       1

loop_
  _space_group_symop_operation_xyz
  'x, y, z'

loop_
  _atom_site_type_symbol
  _atom_site_label
  _atom_site_symmetry_multiplicity
  _atom_site_fract_x
  _atom_site_fract_y
  _atom_site_fract_z
  _atom_site_occupancy
  O   O1        1.0  0.50000  0.00000  0.00000  1.0000
  O   O2        1.0  0.22300  0.38700  0.08640  1.0000
  O   O3        1.0  0.71500  0.38100  0.38100  1.0000
  O   O4        1.0  0.22300  0.08640  0.38700  1.0000
  O   O5        1.0  0.77700  0.91400  0.61300  1.0000
  O   O6        1.0  0.28500  0.61900  0.61900  1.0000
  O   O7        1.0  0.77700  0.61300  0.91400  1.0000
  Si  Si1       1.0  0.41300  0.21900  0.21900  1.0000
  Si  Si2       1.0  0.58700  0.78100  0.78100  1.0000
  Y   Y1        1.0  0.00000  0.69500  0.30500  1.0000
  Y   Y2        1.0  0.00000  0.30500  0.69500  1.0000
