data_image0
_chemical_formula_structural       Cs2N4Nb2
_chemical_formula_sum              "Cs2 N4 Nb2"
_cell_length_a       6.33001
_cell_length_b       6.33001
_cell_length_c       6.33001
_cell_angle_alpha    120
_cell_angle_beta     90
_cell_angle_gamma    120

_space_group_name_H-M_alt    "P 1"
_space_group_IT_number       1

loop_
  _space_group_symop_operation_xyz
  'x, y, z'

loop_
  _atom_site_type_symbol
  _atom_site_label
  _atom_site_symmetry_multiplicity
  _atom_site_fract_x
  _atom_site_fract_y
  _atom_site_fract_z
  _atom_site_occupancy
  Cs  Cs1       1.0  0.62500  0.25000  0.37500  1.0000
  Cs  Cs2       1.0  0.37500  0.75000  0.62500  1.0000
  N   N1        1.0  0.00000  0.00000  0.00000  1.0000
  N   N2        1.0  0.00000  0.50000  0.00000  1.0000
  N   N3        1.0  0.50000  0.50000  0.00000  1.0000
  N   N4        1.0  0.00000  0.00000  0.50000  1.0000
  Nb  Nb1       1.0  0.87500  0.75000  0.12500  1.0000
  Nb  Nb2       1.0  0.12500  0.25000  0.87500  1.0000
