data_image0
_chemical_formula_structural       Ni3Sb2Zn
_chemical_formula_sum              "Ni3 Sb2 Zn1"
_cell_length_a       4.31561
_cell_length_b       4.31566
_cell_length_c       5.66105
_cell_angle_alpha    90
_cell_angle_beta     90.0011
_cell_angle_gamma    120

_space_group_name_H-M_alt    "P 1"
_space_group_IT_number       1

loop_
  _space_group_symop_operation_xyz
  'x, y, z'

loop_
  _atom_site_type_symbol
  _atom_site_label
  _atom_site_symmetry_multiplicity
  _atom_site_fract_x
  _atom_site_fract_y
  _atom_site_fract_z
  _atom_site_occupancy
  Ni  Ni1       1.0  0.66700  0.33300  0.16000  1.0000
  Ni  Ni2       1.0  0.00000  0.00000  0.50000  1.0000
  Ni  Ni3       1.0  0.33300  0.66700  0.84000  1.0000
  Sb  Sb1       1.0  0.33300  0.66700  0.30300  1.0000
  Sb  Sb2       1.0  0.66700  0.33300  0.69700  1.0000
  Zn  Zn1       1.0  0.00000  0.00000  0.00000  1.0000
