data_image0
_chemical_formula_structural       Cs6H10Pd2
_chemical_formula_sum              "Cs6 H10 Pd2"
_cell_length_a       8.10894
_cell_length_b       8.10894
_cell_length_c       6.17174
_cell_angle_alpha    90
_cell_angle_beta     90
_cell_angle_gamma    90

_space_group_name_H-M_alt    "P 1"
_space_group_IT_number       1

loop_
  _space_group_symop_operation_xyz
  'x, y, z'

loop_
  _atom_site_type_symbol
  _atom_site_label
  _atom_site_symmetry_multiplicity
  _atom_site_fract_x
  _atom_site_fract_y
  _atom_site_fract_z
  _atom_site_occupancy
  Cs  Cs1       1.0  0.00000  0.00000  0.00000  1.0000
  Cs  Cs2       1.0  0.50000  0.50000  0.00000  1.0000
  Cs  Cs3       1.0  0.68600  0.18600  0.50000  1.0000
  Cs  Cs4       1.0  0.18600  0.31400  0.50000  1.0000
  Cs  Cs5       1.0  0.81400  0.68600  0.50000  1.0000
  Cs  Cs6       1.0  0.31400  0.81400  0.50000  1.0000
  H   H1        1.0  0.39600  0.10400  0.18900  1.0000
  H   H2        1.0  0.89600  0.39600  0.18900  1.0000
  H   H3        1.0  0.10400  0.60400  0.18900  1.0000
  H   H4        1.0  0.60400  0.89600  0.18900  1.0000
  H   H5        1.0  0.00000  0.00000  0.50000  1.0000
  H   H6        1.0  0.50000  0.50000  0.50000  1.0000
  H   H7        1.0  0.39600  0.10400  0.81100  1.0000
  H   H8        1.0  0.89600  0.39600  0.81100  1.0000
  H   H9        1.0  0.10400  0.60400  0.81100  1.0000
  H   H10       1.0  0.60400  0.89600  0.81100  1.0000
  Pd  Pd1       1.0  0.50000  0.00000  0.00000  1.0000
  Pd  Pd2       1.0  0.00000  0.50000  0.00000  1.0000
