data_image0
_chemical_formula_structural       Ca2Ga6Ni4
_chemical_formula_sum              "Ca2 Ga6 Ni4"
_cell_length_a       5.15733
_cell_length_b       6.27564
_cell_length_c       6.27564
_cell_angle_alpha    77.9596
_cell_angle_beta     90
_cell_angle_gamma    90

_space_group_name_H-M_alt    "P 1"
_space_group_IT_number       1

loop_
  _space_group_symop_operation_xyz
  'x, y, z'

loop_
  _atom_site_type_symbol
  _atom_site_label
  _atom_site_symmetry_multiplicity
  _atom_site_fract_x
  _atom_site_fract_y
  _atom_site_fract_z
  _atom_site_occupancy
  Ca  Ca1       1.0  0.75000  0.65500  0.34500  1.0000
  Ca  Ca2       1.0  0.25000  0.34500  0.65500  1.0000
  Ga  Ga1       1.0  0.25000  0.95100  0.04880  1.0000
  Ga  Ga2       1.0  0.25000  0.53500  0.09000  1.0000
  Ga  Ga3       1.0  0.25000  0.91000  0.46500  1.0000
  Ga  Ga4       1.0  0.75000  0.09000  0.53500  1.0000
  Ga  Ga5       1.0  0.75000  0.46500  0.91000  1.0000
  Ga  Ga6       1.0  0.75000  0.04880  0.95100  1.0000
  Ni  Ni1       1.0  0.00000  0.21100  0.21100  1.0000
  Ni  Ni2       1.0  0.50000  0.21100  0.21100  1.0000
  Ni  Ni3       1.0  0.00000  0.78900  0.78900  1.0000
  Ni  Ni4       1.0  0.50000  0.78900  0.78900  1.0000
