data_image0
_chemical_formula_structural       C4H4O8Tl4
_chemical_formula_sum              "C4 H4 O8 Tl4"
_cell_length_a       6.68091
_cell_length_b       7.68597
_cell_length_c       5.88859
_cell_angle_alpha    90
_cell_angle_beta     90
_cell_angle_gamma    90

_space_group_name_H-M_alt    "P 1"
_space_group_IT_number       1

loop_
  _space_group_symop_operation_xyz
  'x, y, z'

loop_
  _atom_site_type_symbol
  _atom_site_label
  _atom_site_symmetry_multiplicity
  _atom_site_fract_x
  _atom_site_fract_y
  _atom_site_fract_z
  _atom_site_occupancy
  C   C1        1.0  0.16400  0.25000  0.25000  1.0000
  C   C2        1.0  0.33600  0.75000  0.25000  1.0000
  C   C3        1.0  0.66400  0.25000  0.75000  1.0000
  C   C4        1.0  0.83600  0.75000  0.75000  1.0000
  H   H1        1.0  0.33000  0.25000  0.25000  1.0000
  H   H2        1.0  0.17000  0.75000  0.25000  1.0000
  H   H3        1.0  0.83000  0.25000  0.75000  1.0000
  H   H4        1.0  0.67000  0.75000  0.75000  1.0000
  O   O1        1.0  0.07530  0.31700  0.08020  1.0000
  O   O2        1.0  0.42500  0.68300  0.08020  1.0000
  O   O3        1.0  0.07530  0.18300  0.42000  1.0000
  O   O4        1.0  0.42500  0.81700  0.42000  1.0000
  O   O5        1.0  0.57500  0.18300  0.58000  1.0000
  O   O6        1.0  0.92500  0.81700  0.58000  1.0000
  O   O7        1.0  0.57500  0.31700  0.92000  1.0000
  O   O8        1.0  0.92500  0.68300  0.92000  1.0000
  Tl  Tl1       1.0  0.75000  0.50000  0.24400  1.0000
  Tl  Tl2       1.0  0.75000  0.00000  0.25600  1.0000
  Tl  Tl3       1.0  0.25000  0.00000  0.74400  1.0000
  Tl  Tl4       1.0  0.25000  0.50000  0.75600  1.0000
