data_image0
_chemical_formula_structural       C4H12Te4
_chemical_formula_sum              "C4 H12 Te4"
_cell_length_a       5.67968
_cell_length_b       7.61191
_cell_length_c       7.61191
_cell_angle_alpha    68.0672
_cell_angle_beta     104.981
_cell_angle_gamma    104.981

_space_group_name_H-M_alt    "P 1"
_space_group_IT_number       1

loop_
  _space_group_symop_operation_xyz
  'x, y, z'

loop_
  _atom_site_type_symbol
  _atom_site_label
  _atom_site_symmetry_multiplicity
  _atom_site_fract_x
  _atom_site_fract_y
  _atom_site_fract_z
  _atom_site_occupancy
  C   C1        1.0  0.94100  0.71600  0.01930  1.0000
  C   C2        1.0  0.55900  0.98100  0.28400  1.0000
  C   C3        1.0  0.44100  0.01930  0.71600  1.0000
  C   C4        1.0  0.05940  0.28400  0.98100  1.0000
  H   H1        1.0  0.09490  0.13700  0.05410  1.0000
  H   H2        1.0  0.09680  0.35800  0.08630  1.0000
  H   H3        1.0  0.13100  0.71300  0.09950  1.0000
  H   H4        1.0  0.59500  0.05410  0.13700  1.0000
  H   H5        1.0  0.36900  0.90000  0.28700  1.0000
  H   H6        1.0  0.59700  0.08630  0.35800  1.0000
  H   H7        1.0  0.40300  0.91400  0.64200  1.0000
  H   H8        1.0  0.63100  0.09950  0.71300  1.0000
  H   H9        1.0  0.40500  0.94600  0.86300  1.0000
  H   H10       1.0  0.86900  0.28700  0.90000  1.0000
  H   H11       1.0  0.90300  0.64200  0.91400  1.0000
  H   H12       1.0  0.90500  0.86300  0.94600  1.0000
  Te  Te1       1.0  0.68200  0.55400  0.21500  1.0000
  Te  Te2       1.0  0.81800  0.78500  0.44600  1.0000
  Te  Te3       1.0  0.18200  0.21500  0.55400  1.0000
  Te  Te4       1.0  0.31800  0.44600  0.78500  1.0000
