data_image0
_chemical_formula_structural       C2H10N2O4
_chemical_formula_sum              "C2 H10 N2 O4"
_cell_length_a       3.58929
_cell_length_b       4.54717
_cell_length_c       8.84101
_cell_angle_alpha    90
_cell_angle_beta     88.7992
_cell_angle_gamma    90.0002

_space_group_name_H-M_alt    "P 1"
_space_group_IT_number       1

loop_
  _space_group_symop_operation_xyz
  'x, y, z'

loop_
  _atom_site_type_symbol
  _atom_site_label
  _atom_site_symmetry_multiplicity
  _atom_site_fract_x
  _atom_site_fract_y
  _atom_site_fract_z
  _atom_site_occupancy
  C   C1        1.0  0.49600  0.62300  0.19200  1.0000
  C   C2        1.0  0.49600  0.37700  0.69200  1.0000
  H   H1        1.0  0.16300  0.26900  0.01910  1.0000
  H   H2        1.0  0.82000  0.04010  0.08930  1.0000
  H   H3        1.0  0.49100  0.43600  0.27300  1.0000
  H   H4        1.0  0.84700  0.89300  0.39900  1.0000
  H   H5        1.0  0.17700  0.10100  0.49000  1.0000
  H   H6        1.0  0.16300  0.73100  0.51900  1.0000
  H   H7        1.0  0.82000  0.96000  0.58900  1.0000
  H   H8        1.0  0.49100  0.56400  0.77300  1.0000
  H   H9        1.0  0.84700  0.10700  0.89900  1.0000
  H   H10       1.0  0.17700  0.89900  0.99000  1.0000
  N   N1        1.0  0.00204  0.91900  0.49800  1.0000
  N   N2        1.0  0.00203  0.08080  0.99800  1.0000
  O   O1        1.0  0.41100  0.57200  0.05590  1.0000
  O   O2        1.0  0.59000  0.87400  0.24300  1.0000
  O   O3        1.0  0.41100  0.42800  0.55600  1.0000
  O   O4        1.0  0.59000  0.12600  0.74300  1.0000
