data_image0
_chemical_formula_structural       Cl2Mg
_chemical_formula_sum              "Cl2 Mg1"
_cell_length_a       3.64277
_cell_length_b       3.64276
_cell_length_c       6.32121
_cell_angle_alpha    73.2535
_cell_angle_beta     106.747
_cell_angle_gamma    120

_space_group_name_H-M_alt    "P 1"
_space_group_IT_number       1

loop_
  _space_group_symop_operation_xyz
  'x, y, z'

loop_
  _atom_site_type_symbol
  _atom_site_label
  _atom_site_symmetry_multiplicity
  _atom_site_fract_x
  _atom_site_fract_y
  _atom_site_fract_z
  _atom_site_occupancy
  Cl  Cl1       1.0  0.74300  0.25700  0.22900  1.0000
  Cl  Cl2       1.0  0.25700  0.74300  0.77100  1.0000
  Mg  Mg1       1.0  0.00000  0.00000  0.00000  1.0000
