data_image0
_chemical_formula_structural       Li8O8Pb2
_chemical_formula_sum              "Li8 O8 Pb2"
_cell_length_a       5.49782
_cell_length_b       5.49782
_cell_length_c       6.55126
_cell_angle_alpha    90
_cell_angle_beta     90
_cell_angle_gamma    81.5662

_space_group_name_H-M_alt    "P 1"
_space_group_IT_number       1

loop_
  _space_group_symop_operation_xyz
  'x, y, z'

loop_
  _atom_site_type_symbol
  _atom_site_label
  _atom_site_symmetry_multiplicity
  _atom_site_fract_x
  _atom_site_fract_y
  _atom_site_fract_z
  _atom_site_occupancy
  Li  Li1       1.0  0.15400  0.15400  0.00000  1.0000
  Li  Li2       1.0  0.84600  0.84600  0.00000  1.0000
  Li  Li3       1.0  0.59600  0.11000  0.25000  1.0000
  Li  Li4       1.0  0.89000  0.40400  0.25000  1.0000
  Li  Li5       1.0  0.15400  0.15400  0.50000  1.0000
  Li  Li6       1.0  0.84600  0.84600  0.50000  1.0000
  Li  Li7       1.0  0.11000  0.59600  0.75000  1.0000
  Li  Li8       1.0  0.40400  0.89000  0.75000  1.0000
  O   O1        1.0  0.79300  0.20700  0.02270  1.0000
  O   O2        1.0  0.25900  0.28900  0.25000  1.0000
  O   O3        1.0  0.71100  0.74100  0.25000  1.0000
  O   O4        1.0  0.79300  0.20700  0.47700  1.0000
  O   O5        1.0  0.20700  0.79300  0.52300  1.0000
  O   O6        1.0  0.28900  0.25900  0.75000  1.0000
  O   O7        1.0  0.74100  0.71100  0.75000  1.0000
  O   O8        1.0  0.20700  0.79300  0.97700  1.0000
  Pb  Pb1       1.0  0.35700  0.64300  0.25000  1.0000
  Pb  Pb2       1.0  0.64300  0.35700  0.75000  1.0000
