data_image0
_chemical_formula_structural       Ni2S2Tl
_chemical_formula_sum              "Ni2 S2 Tl1"
_cell_length_a       3.79964
_cell_length_b       3.79964
_cell_length_c       6.88074
_cell_angle_alpha    106.028
_cell_angle_beta     106.028
_cell_angle_gamma    90

_space_group_name_H-M_alt    "P 1"
_space_group_IT_number       1

loop_
  _space_group_symop_operation_xyz
  'x, y, z'

loop_
  _atom_site_type_symbol
  _atom_site_label
  _atom_site_symmetry_multiplicity
  _atom_site_fract_x
  _atom_site_fract_y
  _atom_site_fract_z
  _atom_site_occupancy
  Ni  Ni1       1.0  0.75000  0.25000  0.50000  1.0000
  Ni  Ni2       1.0  0.25000  0.75000  0.50000  1.0000
  S   S1        1.0  0.65500  0.65500  0.31000  1.0000
  S   S2        1.0  0.34500  0.34500  0.69000  1.0000
  Tl  Tl1       1.0  0.00000  0.00000  0.00000  1.0000
