data_image0
_chemical_formula_structural       CrCs2F6
_chemical_formula_sum              "Cr1 Cs2 F6"
_cell_length_a       5.99901
_cell_length_b       5.99901
_cell_length_c       5.99901
_cell_angle_alpha    120.011
_cell_angle_beta     89.9813
_cell_angle_gamma    120.011

_space_group_name_H-M_alt    "P 1"
_space_group_IT_number       1

loop_
  _space_group_symop_operation_xyz
  'x, y, z'

loop_
  _atom_site_type_symbol
  _atom_site_label
  _atom_site_symmetry_multiplicity
  _atom_site_fract_x
  _atom_site_fract_y
  _atom_site_fract_z
  _atom_site_occupancy
  Cr  Cr1       1.0  0.00000  0.00000  0.00000  1.0000
  Cs  Cs1       1.0  0.75000  0.50000  0.25000  1.0000
  Cs  Cs2       1.0  0.25000  0.50000  0.75000  1.0000
  F   F1        1.0  0.21800  0.00000  0.21800  1.0000
  F   F2        1.0  0.21800  0.43500  0.21800  1.0000
  F   F3        1.0  0.78200  0.00000  0.21800  1.0000
  F   F4        1.0  0.21800  0.00000  0.78200  1.0000
  F   F5        1.0  0.78200  0.56500  0.78200  1.0000
  F   F6        1.0  0.78200  0.00000  0.78200  1.0000
