data_image0
_chemical_formula_structural       C4H2N6
_chemical_formula_sum              "C4 H2 N6"
_cell_length_a       4.02264
_cell_length_b       4.40609
_cell_length_c       4.40609
_cell_angle_alpha    60.8437
_cell_angle_beta     90
_cell_angle_gamma    90

_space_group_name_H-M_alt    "P 1"
_space_group_IT_number       1

loop_
  _space_group_symop_operation_xyz
  'x, y, z'

loop_
  _atom_site_type_symbol
  _atom_site_label
  _atom_site_symmetry_multiplicity
  _atom_site_fract_x
  _atom_site_fract_y
  _atom_site_fract_z
  _atom_site_occupancy
  C   C1        1.0  0.99900  0.33200  0.00918  1.0000
  C   C2        1.0  0.49900  0.00918  0.33200  1.0000
  C   C3        1.0  0.99900  0.99100  0.66800  1.0000
  C   C4        1.0  0.49900  0.66800  0.99100  1.0000
  H   H1        1.0  0.19900  0.59900  0.40100  1.0000
  H   H2        1.0  0.69900  0.40100  0.59900  1.0000
  N   N1        1.0  0.35800  0.33200  0.06090  1.0000
  N   N2        1.0  0.42400  0.71400  0.28600  1.0000
  N   N3        1.0  0.85800  0.06090  0.33200  1.0000
  N   N4        1.0  0.35800  0.93900  0.66800  1.0000
  N   N5        1.0  0.92400  0.28600  0.71400  1.0000
  N   N6        1.0  0.85800  0.66800  0.93900  1.0000
