data_image0
_chemical_formula_structural       Ge2W
_chemical_formula_sum              "Ge2 W1"
_cell_length_a       3.34615
_cell_length_b       3.34615
_cell_length_c       4.76723
_cell_angle_alpha    110.546
_cell_angle_beta     110.546
_cell_angle_gamma    90

_space_group_name_H-M_alt    "P 1"
_space_group_IT_number       1

loop_
  _space_group_symop_operation_xyz
  'x, y, z'

loop_
  _atom_site_type_symbol
  _atom_site_label
  _atom_site_symmetry_multiplicity
  _atom_site_fract_x
  _atom_site_fract_y
  _atom_site_fract_z
  _atom_site_occupancy
  Ge  Ge1       1.0  0.66200  0.66200  0.32500  1.0000
  Ge  Ge2       1.0  0.33800  0.33800  0.67500  1.0000
  W   W1        1.0  0.00000  0.00000  0.00000  1.0000
