data_image0
_chemical_formula_structural       B4C4H8O4
_chemical_formula_sum              "B4 C4 H8 O4"
_cell_length_a       4.1149
_cell_length_b       5.47017
_cell_length_c       10.4926
_cell_angle_alpha    98.2403
_cell_angle_beta     90
_cell_angle_gamma    112.094

_space_group_name_H-M_alt    "P 1"
_space_group_IT_number       1

loop_
  _space_group_symop_operation_xyz
  'x, y, z'

loop_
  _atom_site_type_symbol
  _atom_site_label
  _atom_site_symmetry_multiplicity
  _atom_site_fract_x
  _atom_site_fract_y
  _atom_site_fract_z
  _atom_site_occupancy
  B   B1        1.0  0.49000  0.16000  0.99300  1.0000
  B   B2        1.0  0.51000  0.84000  0.00668  1.0000
  B   B3        1.0  0.67000  0.16000  0.49300  1.0000
  B   B4        1.0  0.33000  0.84000  0.50700  1.0000
  C   C1        1.0  0.38900  0.23600  0.12500  1.0000
  C   C2        1.0  0.15300  0.76400  0.37500  1.0000
  C   C3        1.0  0.84700  0.23600  0.62500  1.0000
  C   C4        1.0  0.61100  0.76400  0.87500  1.0000
  H   H1        1.0  0.22600  0.66500  0.01600  1.0000
  H   H2        1.0  0.73400  0.84500  0.08270  1.0000
  H   H3        1.0  0.88900  0.15500  0.41700  1.0000
  H   H4        1.0  0.56100  0.33500  0.48400  1.0000
  H   H5        1.0  0.43900  0.66500  0.51600  1.0000
  H   H6        1.0  0.11100  0.84500  0.58300  1.0000
  H   H7        1.0  0.26600  0.15500  0.91700  1.0000
  H   H8        1.0  0.77400  0.33500  0.98400  1.0000
  O   O1        1.0  0.32100  0.28700  0.22900  1.0000
  O   O2        1.0  0.03380  0.71300  0.27100  1.0000
  O   O3        1.0  0.96600  0.28700  0.72900  1.0000
  O   O4        1.0  0.67900  0.71300  0.77100  1.0000
