data_image0
_chemical_formula_structural       C4H16N8S4
_chemical_formula_sum              "C4 H16 N8 S4"
_cell_length_a       6.90597
_cell_length_b       8.15259
_cell_length_c       5.18118
_cell_angle_alpha    90
_cell_angle_beta     90
_cell_angle_gamma    90

_space_group_name_H-M_alt    "P 1"
_space_group_IT_number       1

loop_
  _space_group_symop_operation_xyz
  'x, y, z'

loop_
  _atom_site_type_symbol
  _atom_site_label
  _atom_site_symmetry_multiplicity
  _atom_site_fract_x
  _atom_site_fract_y
  _atom_site_fract_z
  _atom_site_occupancy
  C   C1        1.0  0.11700  0.25000  0.84000  1.0000
  C   C2        1.0  0.38300  0.75000  0.34000  1.0000
  C   C3        1.0  0.61700  0.25000  0.66000  1.0000
  C   C4        1.0  0.88300  0.75000  0.16000  1.0000
  H   H1        1.0  0.09730  0.00042  0.78600  1.0000
  H   H2        1.0  0.40300  0.00000  0.28600  1.0000
  H   H3        1.0  0.59700  0.50000  0.71400  1.0000
  H   H4        1.0  0.90300  0.50000  0.21400  1.0000
  H   H5        1.0  0.90300  0.00000  0.21400  1.0000
  H   H6        1.0  0.59700  0.00042  0.71400  1.0000
  H   H7        1.0  0.40300  0.50000  0.28600  1.0000
  H   H8        1.0  0.09730  0.50000  0.78600  1.0000
  H   H9        1.0  0.19200  0.11400  0.52700  1.0000
  H   H10       1.0  0.30800  0.88600  0.02660  1.0000
  H   H11       1.0  0.69200  0.38600  0.97300  1.0000
  H   H12       1.0  0.80800  0.61400  0.47300  1.0000
  H   H13       1.0  0.80800  0.88600  0.47300  1.0000
  H   H14       1.0  0.69200  0.11400  0.97300  1.0000
  H   H15       1.0  0.30800  0.61400  0.02660  1.0000
  H   H16       1.0  0.19200  0.38600  0.52700  1.0000
  N   N1        1.0  0.15500  0.10900  0.71800  1.0000
  N   N2        1.0  0.34500  0.89100  0.21800  1.0000
  N   N3        1.0  0.65500  0.39100  0.78200  1.0000
  N   N4        1.0  0.84500  0.60900  0.28200  1.0000
  N   N5        1.0  0.84500  0.89100  0.28200  1.0000
  N   N6        1.0  0.65500  0.10900  0.78200  1.0000
  N   N7        1.0  0.34500  0.60900  0.21800  1.0000
  N   N8        1.0  0.15500  0.39100  0.71800  1.0000
  S   S1        1.0  0.02670  0.25000  0.14700  1.0000
  S   S2        1.0  0.47300  0.75000  0.64700  1.0000
  S   S3        1.0  0.52700  0.25000  0.35300  1.0000
  S   S4        1.0  0.97300  0.75000  0.85300  1.0000
