data_image0
_chemical_formula_structural       F12Li4Mo2
_chemical_formula_sum              "F12 Li4 Mo2"
_cell_length_a       4.54138
_cell_length_b       4.54138
_cell_length_c       8.96909
_cell_angle_alpha    90.0006
_cell_angle_beta     90.0006
_cell_angle_gamma    89.9766

_space_group_name_H-M_alt    "P 1"
_space_group_IT_number       1

loop_
  _space_group_symop_operation_xyz
  'x, y, z'

loop_
  _atom_site_type_symbol
  _atom_site_label
  _atom_site_symmetry_multiplicity
  _atom_site_fract_x
  _atom_site_fract_y
  _atom_site_fract_z
  _atom_site_occupancy
  F   F1        1.0  0.69800  0.69800  0.00000  1.0000
  F   F2        1.0  0.30200  0.30200  0.00000  1.0000
  F   F3        1.0  0.79900  0.20100  0.16700  1.0000
  F   F4        1.0  0.20100  0.79900  0.16700  1.0000
  F   F5        1.0  0.70100  0.70100  0.33300  1.0000
  F   F6        1.0  0.29900  0.29900  0.33300  1.0000
  F   F7        1.0  0.80200  0.19800  0.50000  1.0000
  F   F8        1.0  0.19800  0.80200  0.50000  1.0000
  F   F9        1.0  0.70100  0.70100  0.66700  1.0000
  F   F10       1.0  0.29900  0.29900  0.66700  1.0000
  F   F11       1.0  0.79900  0.20100  0.83300  1.0000
  F   F12       1.0  0.20100  0.79900  0.83300  1.0000
  Li  Li1       1.0  0.50000  0.50000  0.16600  1.0000
  Li  Li2       1.0  0.00000  0.00000  0.33500  1.0000
  Li  Li3       1.0  0.00000  0.00000  0.66500  1.0000
  Li  Li4       1.0  0.50000  0.50000  0.83400  1.0000
  Mo  Mo1       1.0  0.00000  0.00000  0.00000  1.0000
  Mo  Mo2       1.0  0.50000  0.50000  0.50000  1.0000
