data_image0
_chemical_formula_structural       B2MnO6Sn
_chemical_formula_sum              "B2 Mn1 O6 Sn1"
_cell_length_a       4.79244
_cell_length_b       4.79244
_cell_length_c       5.7837
_cell_angle_alpha    65.5244
_cell_angle_beta     114.476
_cell_angle_gamma    120

_space_group_name_H-M_alt    "P 1"
_space_group_IT_number       1

loop_
  _space_group_symop_operation_xyz
  'x, y, z'

loop_
  _atom_site_type_symbol
  _atom_site_label
  _atom_site_symmetry_multiplicity
  _atom_site_fract_x
  _atom_site_fract_y
  _atom_site_fract_z
  _atom_site_occupancy
  B   B1        1.0  0.75500  0.24500  0.26400  1.0000
  B   B2        1.0  0.24500  0.75500  0.73600  1.0000
  Mn  Mn1       1.0  0.00000  0.00000  0.00000  1.0000
  O   O1        1.0  0.74300  0.52900  0.26100  1.0000
  O   O2        1.0  0.47100  0.95300  0.26100  1.0000
  O   O3        1.0  0.04650  0.25700  0.26100  1.0000
  O   O4        1.0  0.95300  0.74300  0.73900  1.0000
  O   O5        1.0  0.52900  0.04650  0.73900  1.0000
  O   O6        1.0  0.25700  0.47100  0.73900  1.0000
  Sn  Sn1       1.0  0.50000  0.50000  0.50000  1.0000
