data_image0
_chemical_formula_structural       In3Pt3Sm3
_chemical_formula_sum              "In3 Pt3 Sm3"
_cell_length_a       8.46043
_cell_length_b       8.46044
_cell_length_c       3.67978
_cell_angle_alpha    90
_cell_angle_beta     90
_cell_angle_gamma    119.879

_space_group_name_H-M_alt    "P 1"
_space_group_IT_number       1

loop_
  _space_group_symop_operation_xyz
  'x, y, z'

loop_
  _atom_site_type_symbol
  _atom_site_label
  _atom_site_symmetry_multiplicity
  _atom_site_fract_x
  _atom_site_fract_y
  _atom_site_fract_z
  _atom_site_occupancy
  In  In1       1.0  0.00000  0.29800  0.50000  1.0000
  In  In2       1.0  0.70200  0.70200  0.50000  1.0000
  In  In3       1.0  0.29800  1.00000  0.50000  1.0000
  Pt  Pt1       1.0  0.00004  0.00004  0.00000  1.0000
  Pt  Pt2       1.0  0.66700  0.33400  0.00000  1.0000
  Pt  Pt3       1.0  0.33400  0.66700  0.00000  1.0000
  Sm  Sm1       1.0  0.65100  0.00015  0.00000  1.0000
  Sm  Sm2       1.0  0.34900  0.34900  0.00000  1.0000
  Sm  Sm3       1.0  0.00015  0.65100  0.00000  1.0000
