data_image0
_chemical_formula_structural       O8Tm2V2
_chemical_formula_sum              "O8 Tm2 V2"
_cell_length_a       5.86739
_cell_length_b       5.86739
_cell_length_c       5.86739
_cell_angle_alpha    106.391
_cell_angle_beta     115.824
_cell_angle_gamma    106.391

_space_group_name_H-M_alt    "P 1"
_space_group_IT_number       1

loop_
  _space_group_symop_operation_xyz
  'x, y, z'

loop_
  _atom_site_type_symbol
  _atom_site_label
  _atom_site_symmetry_multiplicity
  _atom_site_fract_x
  _atom_site_fract_y
  _atom_site_fract_z
  _atom_site_occupancy
  O   O1        1.0  0.63500  0.93800  0.19700  1.0000
  O   O2        1.0  0.25900  0.56200  0.19700  1.0000
  O   O3        1.0  0.19700  0.06200  0.25900  1.0000
  O   O4        1.0  0.80300  0.56200  0.36500  1.0000
  O   O5        1.0  0.19700  0.43800  0.63500  1.0000
  O   O6        1.0  0.80300  0.93800  0.74100  1.0000
  O   O7        1.0  0.36500  0.06200  0.80300  1.0000
  O   O8        1.0  0.74100  0.43800  0.80300  1.0000
  Tm  Tm1       1.0  0.87500  0.25000  0.12500  1.0000
  Tm  Tm2       1.0  0.12500  0.75000  0.87500  1.0000
  V   V1        1.0  0.62500  0.75000  0.37500  1.0000
  V   V2        1.0  0.37500  0.25000  0.62500  1.0000
