data_image0
_chemical_formula_structural       Be2Hf2
_chemical_formula_sum              "Be2 Hf2"
_cell_length_a       3.33363
_cell_length_b       3.74134
_cell_length_c       5.2558
_cell_angle_alpha    90
_cell_angle_beta     71.5101
_cell_angle_gamma    90

_space_group_name_H-M_alt    "P 1"
_space_group_IT_number       1

loop_
  _space_group_symop_operation_xyz
  'x, y, z'

loop_
  _atom_site_type_symbol
  _atom_site_label
  _atom_site_symmetry_multiplicity
  _atom_site_fract_x
  _atom_site_fract_y
  _atom_site_fract_z
  _atom_site_occupancy
  Be  Be1       1.0  0.43800  0.75000  0.12300  1.0000
  Be  Be2       1.0  0.56200  0.25000  0.87700  1.0000
  Hf  Hf1       1.0  0.84900  0.25000  0.30200  1.0000
  Hf  Hf2       1.0  0.15100  0.75000  0.69800  1.0000
