data_image0
_chemical_formula_structural       K4O6Ti2
_chemical_formula_sum              "K4 O6 Ti2"
_cell_length_a       5.44548
_cell_length_b       6.08038
_cell_length_c       6.08038
_cell_angle_alpha    69.5316
_cell_angle_beta     90
_cell_angle_gamma    90

_space_group_name_H-M_alt    "P 1"
_space_group_IT_number       1

loop_
  _space_group_symop_operation_xyz
  'x, y, z'

loop_
  _atom_site_type_symbol
  _atom_site_label
  _atom_site_symmetry_multiplicity
  _atom_site_fract_x
  _atom_site_fract_y
  _atom_site_fract_z
  _atom_site_occupancy
  K   K1        1.0  0.25000  0.48600  0.18900  1.0000
  K   K2        1.0  0.75000  0.18900  0.48600  1.0000
  K   K3        1.0  0.25000  0.81100  0.51400  1.0000
  K   K4        1.0  0.75000  0.51400  0.81100  1.0000
  O   O1        1.0  0.00000  0.12900  0.12900  1.0000
  O   O2        1.0  0.50000  0.12900  0.12900  1.0000
  O   O3        1.0  0.75000  0.65700  0.34300  1.0000
  O   O4        1.0  0.25000  0.34300  0.65700  1.0000
  O   O5        1.0  0.00000  0.87100  0.87100  1.0000
  O   O6        1.0  0.50000  0.87100  0.87100  1.0000
  Ti  Ti1       1.0  0.75000  0.91500  0.08520  1.0000
  Ti  Ti2       1.0  0.25000  0.08520  0.91500  1.0000
