data_image0
_chemical_formula_structural       Cd2Hf2
_chemical_formula_sum              "Cd2 Hf2"
_cell_length_a       3.10154
_cell_length_b       3.10154
_cell_length_c       8.87458
_cell_angle_alpha    90
_cell_angle_beta     90
_cell_angle_gamma    90

_space_group_name_H-M_alt    "P 1"
_space_group_IT_number       1

loop_
  _space_group_symop_operation_xyz
  'x, y, z'

loop_
  _atom_site_type_symbol
  _atom_site_label
  _atom_site_symmetry_multiplicity
  _atom_site_fract_x
  _atom_site_fract_y
  _atom_site_fract_z
  _atom_site_occupancy
  Cd  Cd1       1.0  0.75000  0.75000  0.37900  1.0000
  Cd  Cd2       1.0  0.25000  0.25000  0.62100  1.0000
  Hf  Hf1       1.0  0.25000  0.25000  0.12100  1.0000
  Hf  Hf2       1.0  0.75000  0.75000  0.87900  1.0000
