data_image0
_chemical_formula_structural       H2Si2
_chemical_formula_sum              "H2 Si2"
_cell_length_a       3.85657
_cell_length_b       3.85676
_cell_length_c       5.35047
_cell_angle_alpha    90
_cell_angle_beta     90.0087
_cell_angle_gamma    120.002

_space_group_name_H-M_alt    "P 1"
_space_group_IT_number       1

loop_
  _space_group_symop_operation_xyz
  'x, y, z'

loop_
  _atom_site_type_symbol
  _atom_site_label
  _atom_site_symmetry_multiplicity
  _atom_site_fract_x
  _atom_site_fract_y
  _atom_site_fract_z
  _atom_site_occupancy
  H   H1        1.0  0.33300  0.66700  0.34900  1.0000
  H   H2        1.0  0.66700  0.33300  0.65100  1.0000
  Si  Si1       1.0  0.66700  0.33300  0.93200  1.0000
  Si  Si2       1.0  0.33300  0.66700  0.06850  1.0000
