data_image0
_chemical_formula_structural       Au6Rb4Tl2
_chemical_formula_sum              "Au6 Rb4 Tl2"
_cell_length_a       5.74107
_cell_length_b       6.81824
_cell_length_c       9.15126
_cell_angle_alpha    90
_cell_angle_beta     90
_cell_angle_gamma    90

_space_group_name_H-M_alt    "P 1"
_space_group_IT_number       1

loop_
  _space_group_symop_operation_xyz
  'x, y, z'

loop_
  _atom_site_type_symbol
  _atom_site_label
  _atom_site_symmetry_multiplicity
  _atom_site_fract_x
  _atom_site_fract_y
  _atom_site_fract_z
  _atom_site_occupancy
  Au  Au1       1.0  0.00000  0.00000  0.00000  1.0000
  Au  Au2       1.0  0.50000  0.00000  0.00000  1.0000
  Au  Au3       1.0  0.75000  0.21100  0.21700  1.0000
  Au  Au4       1.0  0.75000  0.78900  0.21700  1.0000
  Au  Au5       1.0  0.25000  0.21100  0.78300  1.0000
  Au  Au6       1.0  0.25000  0.78900  0.78300  1.0000
  Rb  Rb1       1.0  0.25000  0.50000  0.13300  1.0000
  Rb  Rb2       1.0  0.25000  0.00000  0.37100  1.0000
  Rb  Rb3       1.0  0.75000  0.00000  0.62900  1.0000
  Rb  Rb4       1.0  0.75000  0.50000  0.86700  1.0000
  Tl  Tl1       1.0  0.75000  0.50000  0.43100  1.0000
  Tl  Tl2       1.0  0.25000  0.50000  0.56900  1.0000
