data_image0
_chemical_formula_structural       Ge4La4
_chemical_formula_sum              "Ge4 La4"
_cell_length_a       8.51235
_cell_length_b       4.14131
_cell_length_c       6.11198
_cell_angle_alpha    90
_cell_angle_beta     90
_cell_angle_gamma    90

_space_group_name_H-M_alt    "P 1"
_space_group_IT_number       1

loop_
  _space_group_symop_operation_xyz
  'x, y, z'

loop_
  _atom_site_type_symbol
  _atom_site_label
  _atom_site_symmetry_multiplicity
  _atom_site_fract_x
  _atom_site_fract_y
  _atom_site_fract_z
  _atom_site_occupancy
  Ge  Ge1       1.0  0.46300  0.75000  0.13300  1.0000
  Ge  Ge2       1.0  0.96300  0.75000  0.36700  1.0000
  Ge  Ge3       1.0  0.03710  0.25000  0.63300  1.0000
  Ge  Ge4       1.0  0.53700  0.25000  0.86700  1.0000
  La  La1       1.0  0.18200  0.25000  0.11700  1.0000
  La  La2       1.0  0.68200  0.25000  0.38300  1.0000
  La  La3       1.0  0.31800  0.75000  0.61700  1.0000
  La  La4       1.0  0.81800  0.75000  0.88300  1.0000
