data_image0
_chemical_formula_structural       Cs2Hg2Pr2Se6
_chemical_formula_sum              "Cs2 Hg2 Pr2 Se6"
_cell_length_a       4.39813
_cell_length_b       8.28337
_cell_length_c       11.4216
_cell_angle_alpha    90
_cell_angle_beta     90
_cell_angle_gamma    74.6046

_space_group_name_H-M_alt    "P 1"
_space_group_IT_number       1

loop_
  _space_group_symop_operation_xyz
  'x, y, z'

loop_
  _atom_site_type_symbol
  _atom_site_label
  _atom_site_symmetry_multiplicity
  _atom_site_fract_x
  _atom_site_fract_y
  _atom_site_fract_z
  _atom_site_occupancy
  Cs  Cs1       1.0  0.25700  0.48600  0.25000  1.0000
  Cs  Cs2       1.0  0.74300  0.51400  0.75000  1.0000
  Hg  Hg1       1.0  0.54400  0.91200  0.25000  1.0000
  Hg  Hg2       1.0  0.45600  0.08790  0.75000  1.0000
  Pr  Pr1       1.0  0.00000  0.00000  0.00000  1.0000
  Pr  Pr2       1.0  0.00000  0.00000  0.50000  1.0000
  Se  Se1       1.0  0.62600  0.74900  0.04850  1.0000
  Se  Se2       1.0  0.93700  0.12500  0.25000  1.0000
  Se  Se3       1.0  0.62600  0.74900  0.45100  1.0000
  Se  Se4       1.0  0.37400  0.25100  0.54900  1.0000
  Se  Se5       1.0  0.06270  0.87500  0.75000  1.0000
  Se  Se6       1.0  0.37400  0.25100  0.95100  1.0000
