data_image0
_chemical_formula_structural       Re8Si4Y2
_chemical_formula_sum              "Re8 Si4 Y2"
_cell_length_a       7.39383
_cell_length_b       7.39383
_cell_length_c       4.13273
_cell_angle_alpha    90
_cell_angle_beta     90
_cell_angle_gamma    90

_space_group_name_H-M_alt    "P 1"
_space_group_IT_number       1

loop_
  _space_group_symop_operation_xyz
  'x, y, z'

loop_
  _atom_site_type_symbol
  _atom_site_label
  _atom_site_symmetry_multiplicity
  _atom_site_fract_x
  _atom_site_fract_y
  _atom_site_fract_z
  _atom_site_occupancy
  Re  Re1       1.0  0.34200  0.09390  0.00000  1.0000
  Re  Re2       1.0  0.09390  0.34200  0.00000  1.0000
  Re  Re3       1.0  0.90600  0.65800  0.00000  1.0000
  Re  Re4       1.0  0.65800  0.90600  0.00000  1.0000
  Re  Re5       1.0  0.59400  0.15800  0.50000  1.0000
  Re  Re6       1.0  0.84200  0.40600  0.50000  1.0000
  Re  Re7       1.0  0.15800  0.59400  0.50000  1.0000
  Re  Re8       1.0  0.40600  0.84200  0.50000  1.0000
  Si  Si1       1.0  0.79200  0.20800  0.00000  1.0000
  Si  Si2       1.0  0.20800  0.79200  0.00000  1.0000
  Si  Si3       1.0  0.29200  0.29200  0.50000  1.0000
  Si  Si4       1.0  0.70800  0.70800  0.50000  1.0000
  Y   Y1        1.0  0.50000  0.50000  0.00000  1.0000
  Y   Y2        1.0  0.00000  0.00000  0.50000  1.0000
