data_image0
_chemical_formula_structural       Mo6Te8
_chemical_formula_sum              "Mo6 Te8"
_cell_length_a       7.13272
_cell_length_b       7.13272
_cell_length_c       7.13272
_cell_angle_alpha    92.3109
_cell_angle_beta     92.3109
_cell_angle_gamma    92.3109

_space_group_name_H-M_alt    "P 1"
_space_group_IT_number       1

loop_
  _space_group_symop_operation_xyz
  'x, y, z'

loop_
  _atom_site_type_symbol
  _atom_site_label
  _atom_site_symmetry_multiplicity
  _atom_site_fract_x
  _atom_site_fract_y
  _atom_site_fract_z
  _atom_site_occupancy
  Mo  Mo1       1.0  0.92000  0.74300  0.04500  1.0000
  Mo  Mo2       1.0  0.25700  0.95500  0.08030  1.0000
  Mo  Mo3       1.0  0.95500  0.08030  0.25700  1.0000
  Mo  Mo4       1.0  0.04500  0.92000  0.74300  1.0000
  Mo  Mo5       1.0  0.74300  0.04500  0.92000  1.0000
  Mo  Mo6       1.0  0.08030  0.25700  0.95500  1.0000
  Te  Te1       1.0  0.75600  0.38100  0.12200  1.0000
  Te  Te2       1.0  0.61900  0.87800  0.24400  1.0000
  Te  Te3       1.0  0.28900  0.28900  0.28900  1.0000
  Te  Te4       1.0  0.12200  0.75600  0.38100  1.0000
  Te  Te5       1.0  0.87800  0.24400  0.61900  1.0000
  Te  Te6       1.0  0.71100  0.71100  0.71100  1.0000
  Te  Te7       1.0  0.38100  0.12200  0.75600  1.0000
  Te  Te8       1.0  0.24400  0.61900  0.87800  1.0000
