data_image0
_chemical_formula_structural       Eu4Ga4Sn4
_chemical_formula_sum              "Eu4 Ga4 Sn4"
_cell_length_a       4.55447
_cell_length_b       4.55435
_cell_length_c       17.6069
_cell_angle_alpha    90
_cell_angle_beta     90
_cell_angle_gamma    120.001

_space_group_name_H-M_alt    "P 1"
_space_group_IT_number       1

loop_
  _space_group_symop_operation_xyz
  'x, y, z'

loop_
  _atom_site_type_symbol
  _atom_site_label
  _atom_site_symmetry_multiplicity
  _atom_site_fract_x
  _atom_site_fract_y
  _atom_site_fract_z
  _atom_site_occupancy
  Eu  Eu1       1.0  0.00000  0.00000  0.00000  1.0000
  Eu  Eu2       1.0  0.00001  0.00002  0.25000  1.0000
  Eu  Eu3       1.0  0.00000  0.00000  0.50000  1.0000
  Eu  Eu4       1.0  0.00000  0.00000  0.75000  1.0000
  Ga  Ga1       1.0  0.66700  0.33300  0.16500  1.0000
  Ga  Ga2       1.0  0.66700  0.33300  0.33500  1.0000
  Ga  Ga3       1.0  0.33300  0.66700  0.66500  1.0000
  Ga  Ga4       1.0  0.33300  0.66700  0.83500  1.0000
  Sn  Sn1       1.0  0.33300  0.66700  0.11400  1.0000
  Sn  Sn2       1.0  0.33300  0.66700  0.38600  1.0000
  Sn  Sn3       1.0  0.66700  0.33300  0.61400  1.0000
  Sn  Sn4       1.0  0.66700  0.33300  0.88600  1.0000
