data_image0
_chemical_formula_structural       Cr2S8TlV3
_chemical_formula_sum              "Cr2 S8 Tl1 V3"
_cell_length_a       3.33126
_cell_length_b       8.74659
_cell_length_c       8.75015
_cell_angle_alpha    102.569
_cell_angle_beta     100.973
_cell_angle_gamma    90

_space_group_name_H-M_alt    "P 1"
_space_group_IT_number       1

loop_
  _space_group_symop_operation_xyz
  'x, y, z'

loop_
  _atom_site_type_symbol
  _atom_site_label
  _atom_site_symmetry_multiplicity
  _atom_site_fract_x
  _atom_site_fract_y
  _atom_site_fract_z
  _atom_site_occupancy
  Cr  Cr1       1.0  0.20500  0.83000  0.41000  1.0000
  Cr  Cr2       1.0  0.79500  0.17000  0.59000  1.0000
  S   S1        1.0  0.07080  0.67300  0.14200  1.0000
  S   S2        1.0  0.58600  0.31700  0.17200  1.0000
  S   S3        1.0  0.67000  0.99100  0.33900  1.0000
  S   S4        1.0  0.73800  0.64600  0.47500  1.0000
  S   S5        1.0  0.26200  0.35400  0.52500  1.0000
  S   S6        1.0  0.33000  0.00865  0.66100  1.0000
  S   S7        1.0  0.41400  0.68300  0.82800  1.0000
  S   S8        1.0  0.92900  0.32700  0.85800  1.0000
  Tl  Tl1       1.0  0.00000  0.00000  0.00000  1.0000
  V   V1        1.0  0.50000  0.50000  0.00000  1.0000
  V   V2        1.0  0.14500  0.48800  0.28900  1.0000
  V   V3        1.0  0.85500  0.51200  0.71100  1.0000
