data_image0
_chemical_formula_structural       CuO7Rb4Si2
_chemical_formula_sum              "Cu1 O7 Rb4 Si2"
_cell_length_a       6.26085
_cell_length_b       7.01902
_cell_length_c       7.08995
_cell_angle_alpha    114.001
_cell_angle_beta     100.413
_cell_angle_gamma    107.475

_space_group_name_H-M_alt    "P 1"
_space_group_IT_number       1

loop_
  _space_group_symop_operation_xyz
  'x, y, z'

loop_
  _atom_site_type_symbol
  _atom_site_label
  _atom_site_symmetry_multiplicity
  _atom_site_fract_x
  _atom_site_fract_y
  _atom_site_fract_z
  _atom_site_occupancy
  Cu  Cu1       1.0  0.50000  0.50000  0.50000  1.0000
  O   O1        1.0  0.00000  0.00000  0.00000  1.0000
  O   O2        1.0  0.47500  0.23900  0.22700  1.0000
  O   O3        1.0  0.20900  0.85500  0.24000  1.0000
  O   O4        1.0  0.18400  0.27000  0.43700  1.0000
  O   O5        1.0  0.81600  0.73000  0.56300  1.0000
  O   O6        1.0  0.79100  0.14500  0.76000  1.0000
  O   O7        1.0  0.52500  0.76100  0.77300  1.0000
  Rb  Rb1       1.0  0.93200  0.45600  0.22000  1.0000
  Rb  Rb2       1.0  0.67900  0.91700  0.27700  1.0000
  Rb  Rb3       1.0  0.32100  0.08250  0.72300  1.0000
  Rb  Rb4       1.0  0.06830  0.54400  0.78000  1.0000
  Si  Si1       1.0  0.21900  0.07930  0.22500  1.0000
  Si  Si2       1.0  0.78100  0.92100  0.77500  1.0000
