data_image0
_chemical_formula_structural       Cu2Hf2K2S6
_chemical_formula_sum              "Cu2 Hf2 K2 S6"
_cell_length_a       7.30383
_cell_length_b       3.72192
_cell_length_c       9.75361
_cell_angle_alpha    90
_cell_angle_beta     90
_cell_angle_gamma    104.761

_space_group_name_H-M_alt    "P 1"
_space_group_IT_number       1

loop_
  _space_group_symop_operation_xyz
  'x, y, z'

loop_
  _atom_site_type_symbol
  _atom_site_label
  _atom_site_symmetry_multiplicity
  _atom_site_fract_x
  _atom_site_fract_y
  _atom_site_fract_z
  _atom_site_occupancy
  Cu  Cu1       1.0  0.92600  0.46300  0.25000  1.0000
  Cu  Cu2       1.0  0.07430  0.53700  0.75000  1.0000
  Hf  Hf1       1.0  0.00000  0.00000  0.00000  1.0000
  Hf  Hf2       1.0  0.00000  0.00000  0.50000  1.0000
  K   K1        1.0  0.48900  0.74500  0.25000  1.0000
  K   K2        1.0  0.51100  0.25500  0.75000  1.0000
  S   S1        1.0  0.75700  0.37800  0.04970  1.0000
  S   S2        1.0  0.12400  0.06180  0.25000  1.0000
  S   S3        1.0  0.75700  0.37800  0.45000  1.0000
  S   S4        1.0  0.24300  0.62200  0.55000  1.0000
  S   S5        1.0  0.87600  0.93800  0.75000  1.0000
  S   S6        1.0  0.24300  0.62200  0.95000  1.0000
