data_image0
_chemical_formula_structural       Bi6Ce8
_chemical_formula_sum              "Bi6 Ce8"
_cell_length_a       8.48604
_cell_length_b       8.48604
_cell_length_c       8.48604
_cell_angle_alpha    109.471
_cell_angle_beta     109.471
_cell_angle_gamma    109.471

_space_group_name_H-M_alt    "P 1"
_space_group_IT_number       1

loop_
  _space_group_symop_operation_xyz
  'x, y, z'

loop_
  _atom_site_type_symbol
  _atom_site_label
  _atom_site_symmetry_multiplicity
  _atom_site_fract_x
  _atom_site_fract_y
  _atom_site_fract_z
  _atom_site_occupancy
  Bi  Bi1       1.0  0.87500  0.75000  0.12500  1.0000
  Bi  Bi2       1.0  0.12500  0.37500  0.25000  1.0000
  Bi  Bi3       1.0  0.62500  0.25000  0.37500  1.0000
  Bi  Bi4       1.0  0.75000  0.87500  0.62500  1.0000
  Bi  Bi5       1.0  0.37500  0.12500  0.75000  1.0000
  Bi  Bi6       1.0  0.25000  0.62500  0.87500  1.0000
  Ce  Ce1       1.0  0.14200  0.00000  0.00000  1.0000
  Ce  Ce2       1.0  0.64200  0.00000  0.00000  1.0000
  Ce  Ce3       1.0  0.50000  0.50000  0.14200  1.0000
  Ce  Ce4       1.0  0.35800  0.85800  0.35800  1.0000
  Ce  Ce5       1.0  0.00000  0.14200  0.50000  1.0000
  Ce  Ce6       1.0  0.00000  0.64200  0.50000  1.0000
  Ce  Ce7       1.0  0.50000  0.50000  0.64200  1.0000
  Ce  Ce8       1.0  0.85800  0.35800  0.85800  1.0000
