data_image0
_chemical_formula_structural       Cd6P6Pr2
_chemical_formula_sum              "Cd6 P6 Pr2"
_cell_length_a       4.29847
_cell_length_b       4.29864
_cell_length_c       21.0412
_cell_angle_alpha    90
_cell_angle_beta     90
_cell_angle_gamma    119.999

_space_group_name_H-M_alt    "P 1"
_space_group_IT_number       1

loop_
  _space_group_symop_operation_xyz
  'x, y, z'

loop_
  _atom_site_type_symbol
  _atom_site_label
  _atom_site_symmetry_multiplicity
  _atom_site_fract_x
  _atom_site_fract_y
  _atom_site_fract_z
  _atom_site_occupancy
  Cd  Cd1       1.0  0.33300  0.66700  0.12600  1.0000
  Cd  Cd2       1.0  0.66700  0.33300  0.25000  1.0000
  Cd  Cd3       1.0  0.33300  0.66700  0.37400  1.0000
  Cd  Cd4       1.0  0.66700  0.33300  0.62600  1.0000
  Cd  Cd5       1.0  0.33300  0.66700  0.75000  1.0000
  Cd  Cd6       1.0  0.66700  0.33300  0.87400  1.0000
  P   P1        1.0  0.66700  0.33300  0.07800  1.0000
  P   P2        1.0  0.33300  0.66700  0.25000  1.0000
  P   P3        1.0  0.66700  0.33300  0.42200  1.0000
  P   P4        1.0  0.33300  0.66700  0.57800  1.0000
  P   P5        1.0  0.66700  0.33300  0.75000  1.0000
  P   P6        1.0  0.33300  0.66700  0.92200  1.0000
  Pr  Pr1       1.0  0.00000  0.00000  0.00000  1.0000
  Pr  Pr2       1.0  0.00000  0.00000  0.50000  1.0000
