data_image0
_chemical_formula_structural       Ba8Bi6
_chemical_formula_sum              "Ba8 Bi6"
_cell_length_a       9.22785
_cell_length_b       9.22785
_cell_length_c       9.22785
_cell_angle_alpha    109.471
_cell_angle_beta     109.471
_cell_angle_gamma    109.471

_space_group_name_H-M_alt    "P 1"
_space_group_IT_number       1

loop_
  _space_group_symop_operation_xyz
  'x, y, z'

loop_
  _atom_site_type_symbol
  _atom_site_label
  _atom_site_symmetry_multiplicity
  _atom_site_fract_x
  _atom_site_fract_y
  _atom_site_fract_z
  _atom_site_occupancy
  Ba  Ba1       1.0  0.14600  0.00000  0.00000  1.0000
  Ba  Ba2       1.0  0.64600  0.00000  0.00000  1.0000
  Ba  Ba3       1.0  0.50000  0.50000  0.14600  1.0000
  Ba  Ba4       1.0  0.35400  0.85400  0.35400  1.0000
  Ba  Ba5       1.0  0.00000  0.14600  0.50000  1.0000
  Ba  Ba6       1.0  0.00000  0.64600  0.50000  1.0000
  Ba  Ba7       1.0  0.50000  0.50000  0.64600  1.0000
  Ba  Ba8       1.0  0.85400  0.35400  0.85400  1.0000
  Bi  Bi1       1.0  0.87500  0.75000  0.12500  1.0000
  Bi  Bi2       1.0  0.12500  0.37500  0.25000  1.0000
  Bi  Bi3       1.0  0.62500  0.25000  0.37500  1.0000
  Bi  Bi4       1.0  0.75000  0.87500  0.62500  1.0000
  Bi  Bi5       1.0  0.37500  0.12500  0.75000  1.0000
  Bi  Bi6       1.0  0.25000  0.62500  0.87500  1.0000
