data_image0
_chemical_formula_structural       Er4Sn10
_chemical_formula_sum              "Er4 Sn10"
_cell_length_a       4.34202
_cell_length_b       4.41331
_cell_length_c       18.9873
_cell_angle_alpha    90
_cell_angle_beta     90
_cell_angle_gamma    90

_space_group_name_H-M_alt    "P 1"
_space_group_IT_number       1

loop_
  _space_group_symop_operation_xyz
  'x, y, z'

loop_
  _atom_site_type_symbol
  _atom_site_label
  _atom_site_symmetry_multiplicity
  _atom_site_fract_x
  _atom_site_fract_y
  _atom_site_fract_z
  _atom_site_occupancy
  Er  Er1       1.0  0.75000  0.25000  0.20000  1.0000
  Er  Er2       1.0  0.25000  0.25000  0.37000  1.0000
  Er  Er3       1.0  0.75000  0.75000  0.63000  1.0000
  Er  Er4       1.0  0.25000  0.75000  0.80000  1.0000
  Sn  Sn1       1.0  0.25000  0.25000  0.07620  1.0000
  Sn  Sn2       1.0  0.75000  0.75000  0.07700  1.0000
  Sn  Sn3       1.0  0.25000  0.75000  0.23200  1.0000
  Sn  Sn4       1.0  0.75000  0.75000  0.34200  1.0000
  Sn  Sn5       1.0  0.25000  0.75000  0.49800  1.0000
  Sn  Sn6       1.0  0.75000  0.25000  0.50200  1.0000
  Sn  Sn7       1.0  0.25000  0.25000  0.65800  1.0000
  Sn  Sn8       1.0  0.75000  0.25000  0.76800  1.0000
  Sn  Sn9       1.0  0.25000  0.25000  0.92300  1.0000
  Sn  Sn10      1.0  0.75000  0.75000  0.92400  1.0000
