data_image0
_chemical_formula_structural       As4Gd2Ni8
_chemical_formula_sum              "As4 Gd2 Ni8"
_cell_length_a       7.27007
_cell_length_b       7.27007
_cell_length_c       3.78345
_cell_angle_alpha    90
_cell_angle_beta     90
_cell_angle_gamma    90

_space_group_name_H-M_alt    "P 1"
_space_group_IT_number       1

loop_
  _space_group_symop_operation_xyz
  'x, y, z'

loop_
  _atom_site_type_symbol
  _atom_site_label
  _atom_site_symmetry_multiplicity
  _atom_site_fract_x
  _atom_site_fract_y
  _atom_site_fract_z
  _atom_site_occupancy
  As  As1       1.0  0.78200  0.21800  0.00000  1.0000
  As  As2       1.0  0.21800  0.78200  0.00000  1.0000
  As  As3       1.0  0.28200  0.28200  0.50000  1.0000
  As  As4       1.0  0.71800  0.71800  0.50000  1.0000
  Gd  Gd1       1.0  0.50000  0.50000  0.00000  1.0000
  Gd  Gd2       1.0  0.00000  0.00000  0.50000  1.0000
  Ni  Ni1       1.0  0.34700  0.08870  0.00000  1.0000
  Ni  Ni2       1.0  0.08870  0.34700  0.00000  1.0000
  Ni  Ni3       1.0  0.91100  0.65300  0.00000  1.0000
  Ni  Ni4       1.0  0.65300  0.91100  0.00000  1.0000
  Ni  Ni5       1.0  0.58900  0.15300  0.50000  1.0000
  Ni  Ni6       1.0  0.84700  0.41100  0.50000  1.0000
  Ni  Ni7       1.0  0.15300  0.58900  0.50000  1.0000
  Ni  Ni8       1.0  0.41100  0.84700  0.50000  1.0000
