data_image0
_chemical_formula_structural       Ce6Se8
_chemical_formula_sum              "Ce6 Se8"
_cell_length_a       7.84701
_cell_length_b       7.84701
_cell_length_c       7.84701
_cell_angle_alpha    109.471
_cell_angle_beta     109.471
_cell_angle_gamma    109.471

_space_group_name_H-M_alt    "P 1"
_space_group_IT_number       1

loop_
  _space_group_symop_operation_xyz
  'x, y, z'

loop_
  _atom_site_type_symbol
  _atom_site_label
  _atom_site_symmetry_multiplicity
  _atom_site_fract_x
  _atom_site_fract_y
  _atom_site_fract_z
  _atom_site_occupancy
  Ce  Ce1       1.0  0.87500  0.75000  0.12500  1.0000
  Ce  Ce2       1.0  0.12500  0.37500  0.25000  1.0000
  Ce  Ce3       1.0  0.62500  0.25000  0.37500  1.0000
  Ce  Ce4       1.0  0.75000  0.87500  0.62500  1.0000
  Ce  Ce5       1.0  0.37500  0.12500  0.75000  1.0000
  Ce  Ce6       1.0  0.25000  0.62500  0.87500  1.0000
  Se  Se1       1.0  0.15100  0.00000  0.00000  1.0000
  Se  Se2       1.0  0.65100  0.00000  0.00000  1.0000
  Se  Se3       1.0  0.50000  0.50000  0.15100  1.0000
  Se  Se4       1.0  0.34900  0.84900  0.34900  1.0000
  Se  Se5       1.0  0.00000  0.15100  0.50000  1.0000
  Se  Se6       1.0  0.00000  0.65100  0.50000  1.0000
  Se  Se7       1.0  0.50000  0.50000  0.65100  1.0000
  Se  Se8       1.0  0.84900  0.34900  0.84900  1.0000
