data_image0
_chemical_formula_structural       GeO8P2Sr
_chemical_formula_sum              "Ge1 O8 P2 Sr1"
_cell_length_a       4.65859
_cell_length_b       4.65859
_cell_length_c       7.30274
_cell_angle_alpha    93.5057
_cell_angle_beta     93.5057
_cell_angle_gamma    66.2333

_space_group_name_H-M_alt    "P 1"
_space_group_IT_number       1

loop_
  _space_group_symop_operation_xyz
  'x, y, z'

loop_
  _atom_site_type_symbol
  _atom_site_label
  _atom_site_symmetry_multiplicity
  _atom_site_fract_x
  _atom_site_fract_y
  _atom_site_fract_z
  _atom_site_occupancy
  Ge  Ge1       1.0  0.00000  0.00000  0.00000  1.0000
  O   O1        1.0  0.23500  0.23500  0.04540  1.0000
  O   O2        1.0  0.73200  0.23600  0.19100  1.0000
  O   O3        1.0  0.23600  0.73200  0.19100  1.0000
  O   O4        1.0  0.30700  0.30700  0.40200  1.0000
  O   O5        1.0  0.69300  0.69300  0.59800  1.0000
  O   O6        1.0  0.76400  0.26800  0.80900  1.0000
  O   O7        1.0  0.26800  0.76400  0.80900  1.0000
  O   O8        1.0  0.76500  0.76500  0.95500  1.0000
  P   P1        1.0  0.36800  0.36800  0.21000  1.0000
  P   P2        1.0  0.63200  0.63200  0.79000  1.0000
  Sr  Sr1       1.0  0.00000  0.00000  0.50000  1.0000
