data_image0
_chemical_formula_structural       Ga8Ni2Tb2
_chemical_formula_sum              "Ga8 Ni2 Tb2"
_cell_length_a       4.0979
_cell_length_b       6.57364
_cell_length_c       7.94747
_cell_angle_alpha    90
_cell_angle_beta     75.0598
_cell_angle_gamma    90

_space_group_name_H-M_alt    "P 1"
_space_group_IT_number       1

loop_
  _space_group_symop_operation_xyz
  'x, y, z'

loop_
  _atom_site_type_symbol
  _atom_site_label
  _atom_site_symmetry_multiplicity
  _atom_site_fract_x
  _atom_site_fract_y
  _atom_site_fract_z
  _atom_site_occupancy
  Ga  Ga1       1.0  0.00000  0.00000  0.00000  1.0000
  Ga  Ga2       1.0  0.00000  0.50000  0.00000  1.0000
  Ga  Ga3       1.0  0.42700  0.25000  0.14500  1.0000
  Ga  Ga4       1.0  0.81400  0.05110  0.37200  1.0000
  Ga  Ga5       1.0  0.81400  0.44900  0.37200  1.0000
  Ga  Ga6       1.0  0.18600  0.55100  0.62800  1.0000
  Ga  Ga7       1.0  0.18600  0.94900  0.62800  1.0000
  Ga  Ga8       1.0  0.57300  0.75000  0.85500  1.0000
  Ni  Ni1       1.0  0.27500  0.25000  0.45000  1.0000
  Ni  Ni2       1.0  0.72500  0.75000  0.55000  1.0000
  Tb  Tb1       1.0  0.38300  0.75000  0.23500  1.0000
  Tb  Tb2       1.0  0.61700  0.25000  0.76500  1.0000
