data_image0
_chemical_formula_structural       Dy3Ga9Ru3
_chemical_formula_sum              "Dy3 Ga9 Ru3"
_cell_length_a       6.4218
_cell_length_b       6.4218
_cell_length_c       6.4218
_cell_angle_alpha    90
_cell_angle_beta     90
_cell_angle_gamma    90

_space_group_name_H-M_alt    "P 1"
_space_group_IT_number       1

loop_
  _space_group_symop_operation_xyz
  'x, y, z'

loop_
  _atom_site_type_symbol
  _atom_site_label
  _atom_site_symmetry_multiplicity
  _atom_site_fract_x
  _atom_site_fract_y
  _atom_site_fract_z
  _atom_site_occupancy
  Dy  Dy1       1.0  0.50000  0.50000  0.00000  1.0000
  Dy  Dy2       1.0  0.50000  0.00000  0.50000  1.0000
  Dy  Dy3       1.0  0.00000  0.50000  0.50000  1.0000
  Ga  Ga1       1.0  0.21100  0.21100  0.21100  1.0000
  Ga  Ga2       1.0  0.78900  0.21100  0.21100  1.0000
  Ga  Ga3       1.0  0.21100  0.78900  0.21100  1.0000
  Ga  Ga4       1.0  0.78900  0.78900  0.21100  1.0000
  Ga  Ga5       1.0  0.50000  0.50000  0.50000  1.0000
  Ga  Ga6       1.0  0.21100  0.21100  0.78900  1.0000
  Ga  Ga7       1.0  0.78900  0.21100  0.78900  1.0000
  Ga  Ga8       1.0  0.21100  0.78900  0.78900  1.0000
  Ga  Ga9       1.0  0.78900  0.78900  0.78900  1.0000
  Ru  Ru1       1.0  0.50000  0.00000  0.00000  1.0000
  Ru  Ru2       1.0  0.00000  0.50000  0.00000  1.0000
  Ru  Ru3       1.0  0.00000  0.00000  0.50000  1.0000
