data_image0
_chemical_formula_structural       Cl2In2
_chemical_formula_sum              "Cl2 In2"
_cell_length_a       4.27185
_cell_length_b       4.62593
_cell_length_c       6.51843
_cell_angle_alpha    90
_cell_angle_beta     70.8723
_cell_angle_gamma    90

_space_group_name_H-M_alt    "P 1"
_space_group_IT_number       1

loop_
  _space_group_symop_operation_xyz
  'x, y, z'

loop_
  _atom_site_type_symbol
  _atom_site_label
  _atom_site_symmetry_multiplicity
  _atom_site_fract_x
  _atom_site_fract_y
  _atom_site_fract_z
  _atom_site_occupancy
  Cl  Cl1       1.0  0.84500  0.25000  0.30900  1.0000
  Cl  Cl2       1.0  0.15500  0.75000  0.69100  1.0000
  In  In1       1.0  0.38800  0.75000  0.22400  1.0000
  In  In2       1.0  0.61200  0.25000  0.77600  1.0000
