data_image0
_chemical_formula_structural       Si2Y2
_chemical_formula_sum              "Si2 Y2"
_cell_length_a       3.83324
_cell_length_b       4.28488
_cell_length_c       5.69407
_cell_angle_alpha    67.8979
_cell_angle_beta     90
_cell_angle_gamma    90

_space_group_name_H-M_alt    "P 1"
_space_group_IT_number       1

loop_
  _space_group_symop_operation_xyz
  'x, y, z'

loop_
  _atom_site_type_symbol
  _atom_site_label
  _atom_site_symmetry_multiplicity
  _atom_site_fract_x
  _atom_site_fract_y
  _atom_site_fract_z
  _atom_site_occupancy
  Si  Si1       1.0  0.75000  0.42400  0.15300  1.0000
  Si  Si2       1.0  0.25000  0.57600  0.84700  1.0000
  Y   Y1        1.0  0.25000  0.86000  0.28100  1.0000
  Y   Y2        1.0  0.75000  0.14000  0.71900  1.0000
