data_image0
_chemical_formula_structural       F2Kr
_chemical_formula_sum              "F2 Kr1"
_cell_length_a       3.82716
_cell_length_b       3.82716
_cell_length_c       4.20249
_cell_angle_alpha    117.087
_cell_angle_beta     117.087
_cell_angle_gamma    90

_space_group_name_H-M_alt    "P 1"
_space_group_IT_number       1

loop_
  _space_group_symop_operation_xyz
  'x, y, z'

loop_
  _atom_site_type_symbol
  _atom_site_label
  _atom_site_symmetry_multiplicity
  _atom_site_fract_x
  _atom_site_fract_y
  _atom_site_fract_z
  _atom_site_occupancy
  F   F1        1.0  0.70100  0.70100  0.40200  1.0000
  F   F2        1.0  0.29900  0.29900  0.59800  1.0000
  Kr  Kr1       1.0  0.00000  0.00000  0.00000  1.0000
