data_image0
_chemical_formula_structural       CsO2
_chemical_formula_sum              "Cs1 O2"
_cell_length_a       4.27381
_cell_length_b       4.27381
_cell_length_c       4.70688
_cell_angle_alpha    117
_cell_angle_beta     117
_cell_angle_gamma    90

_space_group_name_H-M_alt    "P 1"
_space_group_IT_number       1

loop_
  _space_group_symop_operation_xyz
  'x, y, z'

loop_
  _atom_site_type_symbol
  _atom_site_label
  _atom_site_symmetry_multiplicity
  _atom_site_fract_x
  _atom_site_fract_y
  _atom_site_fract_z
  _atom_site_occupancy
  Cs  Cs1       1.0  0.00000  0.00000  0.00000  1.0000
  O   O1        1.0  0.59400  0.59400  0.18700  1.0000
  O   O2        1.0  0.40600  0.40600  0.81300  1.0000
