data_image0
_chemical_formula_structural       I2Nd
_chemical_formula_sum              "I2 Nd1"
_cell_length_a       3.87637
_cell_length_b       3.87637
_cell_length_c       7.88225
_cell_angle_alpha    104.235
_cell_angle_beta     104.235
_cell_angle_gamma    90

_space_group_name_H-M_alt    "P 1"
_space_group_IT_number       1

loop_
  _space_group_symop_operation_xyz
  'x, y, z'

loop_
  _atom_site_type_symbol
  _atom_site_label
  _atom_site_symmetry_multiplicity
  _atom_site_fract_x
  _atom_site_fract_y
  _atom_site_fract_z
  _atom_site_occupancy
  I   I1        1.0  0.62800  0.62800  0.25500  1.0000
  I   I2        1.0  0.37200  0.37200  0.74500  1.0000
  Nd  Nd1       1.0  0.00000  0.00000  0.00000  1.0000
