data_image0
_chemical_formula_structural       Ag2Dy2Sb4
_chemical_formula_sum              "Ag2 Dy2 Sb4"
_cell_length_a       4.32334
_cell_length_b       4.32334
_cell_length_c       10.444
_cell_angle_alpha    90
_cell_angle_beta     90
_cell_angle_gamma    90

_space_group_name_H-M_alt    "P 1"
_space_group_IT_number       1

loop_
  _space_group_symop_operation_xyz
  'x, y, z'

loop_
  _atom_site_type_symbol
  _atom_site_label
  _atom_site_symmetry_multiplicity
  _atom_site_fract_x
  _atom_site_fract_y
  _atom_site_fract_z
  _atom_site_occupancy
  Ag  Ag1       1.0  0.75000  0.25000  0.00000  1.0000
  Ag  Ag2       1.0  0.25000  0.75000  0.00000  1.0000
  Dy  Dy1       1.0  0.25000  0.25000  0.26500  1.0000
  Dy  Dy2       1.0  0.75000  0.75000  0.73500  1.0000
  Sb  Sb1       1.0  0.75000  0.75000  0.18600  1.0000
  Sb  Sb2       1.0  0.75000  0.25000  0.50000  1.0000
  Sb  Sb3       1.0  0.25000  0.75000  0.50000  1.0000
  Sb  Sb4       1.0  0.25000  0.25000  0.81400  1.0000
