data_image0
_chemical_formula_structural       NaNiO2
_chemical_formula_sum              "Na1 Ni1 O2"
_cell_length_a       2.83621
_cell_length_b       3.00248
_cell_length_c       5.41841
_cell_angle_alpha    103.351
_cell_angle_beta     105.172
_cell_angle_gamma    61.8156

_space_group_name_H-M_alt    "P 1"
_space_group_IT_number       1

loop_
  _space_group_symop_operation_xyz
  'x, y, z'

loop_
  _atom_site_type_symbol
  _atom_site_label
  _atom_site_symmetry_multiplicity
  _atom_site_fract_x
  _atom_site_fract_y
  _atom_site_fract_z
  _atom_site_occupancy
  Na  Na1       1.0  0.50000  0.50000  0.50000  1.0000
  Ni  Ni1       1.0  0.00000  0.00000  0.00000  1.0000
  O   O1        1.0  0.71600  0.76600  0.19800  1.0000
  O   O2        1.0  0.28400  0.23400  0.80200  1.0000
