data_image0
_chemical_formula_structural       AuCe2Tm
_chemical_formula_sum              "Au1 Ce2 Tm1"
_cell_length_a       5.42643
_cell_length_b       5.42643
_cell_length_c       5.42643
_cell_angle_alpha    60
_cell_angle_beta     60
_cell_angle_gamma    60

_space_group_name_H-M_alt    "P 1"
_space_group_IT_number       1

loop_
  _space_group_symop_operation_xyz
  'x, y, z'

loop_
  _atom_site_type_symbol
  _atom_site_label
  _atom_site_symmetry_multiplicity
  _atom_site_fract_x
  _atom_site_fract_y
  _atom_site_fract_z
  _atom_site_occupancy
  Au  Au1       1.0  0.25000  0.25000  0.25000  1.0000
  Ce  Ce1       1.0  0.50000  0.50000  0.50000  1.0000
  Ce  Ce2       1.0  0.00000  0.00000  0.00000  1.0000
  Tm  Tm1       1.0  0.75000  0.75000  0.75000  1.0000
