data_image0
_chemical_formula_structural       Ho2Li2Sn4
_chemical_formula_sum              "Ho2 Li2 Sn4"
_cell_length_a       4.38651
_cell_length_b       4.46917
_cell_length_c       9.72971
_cell_angle_alpha    90
_cell_angle_beta     76.9725
_cell_angle_gamma    90

_space_group_name_H-M_alt    "P 1"
_space_group_IT_number       1

loop_
  _space_group_symop_operation_xyz
  'x, y, z'

loop_
  _atom_site_type_symbol
  _atom_site_label
  _atom_site_symmetry_multiplicity
  _atom_site_fract_x
  _atom_site_fract_y
  _atom_site_fract_z
  _atom_site_occupancy
  Ho  Ho1       1.0  0.89300  0.25000  0.21500  1.0000
  Ho  Ho2       1.0  0.10700  0.75000  0.78500  1.0000
  Li  Li1       1.0  0.32500  0.75000  0.34900  1.0000
  Li  Li2       1.0  0.67500  0.25000  0.65100  1.0000
  Sn  Sn1       1.0  0.45500  0.75000  0.09090  1.0000
  Sn  Sn2       1.0  0.25100  0.25000  0.49800  1.0000
  Sn  Sn3       1.0  0.74900  0.75000  0.50200  1.0000
  Sn  Sn4       1.0  0.54500  0.25000  0.90900  1.0000
