data_image0
_chemical_formula_structural       C3H3O6Tb
_chemical_formula_sum              "C3 H3 O6 Tb1"
_cell_length_a       3.91704
_cell_length_b       6.1286
_cell_length_c       6.1286
_cell_angle_alpha    115.589
_cell_angle_beta     102.301
_cell_angle_gamma    102.301

_space_group_name_H-M_alt    "P 1"
_space_group_IT_number       1

loop_
  _space_group_symop_operation_xyz
  'x, y, z'

loop_
  _atom_site_type_symbol
  _atom_site_label
  _atom_site_symmetry_multiplicity
  _atom_site_fract_x
  _atom_site_fract_y
  _atom_site_fract_z
  _atom_site_occupancy
  C   C1        1.0  0.39400  0.53900  0.00000  1.0000
  C   C2        1.0  0.85500  0.46100  0.46100  1.0000
  C   C3        1.0  0.39400  0.00000  0.53900  1.0000
  H   H1        1.0  0.64400  0.48300  0.00000  1.0000
  H   H2        1.0  0.64400  0.00000  0.48300  1.0000
  H   H3        1.0  0.16000  0.51700  0.51700  1.0000
  O   O1        1.0  0.41100  0.74900  0.00000  1.0000
  O   O2        1.0  0.11100  0.39400  0.00000  1.0000
  O   O3        1.0  0.66200  0.25100  0.25100  1.0000
  O   O4        1.0  0.11100  0.00000  0.39400  1.0000
  O   O5        1.0  0.71600  0.60600  0.60600  1.0000
  O   O6        1.0  0.41100  1.00000  0.74900  1.0000
  Tb  Tb1       1.0  0.00000  0.00000  0.00000  1.0000
