data_image0
_chemical_formula_structural       C3H3O6Sm
_chemical_formula_sum              "C3 H3 O6 Sm1"
_cell_length_a       3.97586
_cell_length_b       6.18624
_cell_length_c       6.18624
_cell_angle_alpha    115.54
_cell_angle_beta     102.371
_cell_angle_gamma    102.371

_space_group_name_H-M_alt    "P 1"
_space_group_IT_number       1

loop_
  _space_group_symop_operation_xyz
  'x, y, z'

loop_
  _atom_site_type_symbol
  _atom_site_label
  _atom_site_symmetry_multiplicity
  _atom_site_fract_x
  _atom_site_fract_y
  _atom_site_fract_z
  _atom_site_occupancy
  C   C1        1.0  0.22900  0.53900  0.00000  1.0000
  C   C2        1.0  0.69000  0.46100  0.46100  1.0000
  C   C3        1.0  0.22900  1.00000  0.53900  1.0000
  H   H1        1.0  0.47300  0.48200  0.00000  1.0000
  H   H2        1.0  0.47300  0.00000  0.48200  1.0000
  H   H3        1.0  0.99100  0.51800  0.51800  1.0000
  O   O1        1.0  0.94700  0.39800  0.00000  1.0000
  O   O2        1.0  0.25000  0.74800  0.00000  1.0000
  O   O3        1.0  0.50200  0.25200  0.25200  1.0000
  O   O4        1.0  0.94700  0.00000  0.39800  1.0000
  O   O5        1.0  0.54900  0.60200  0.60200  1.0000
  O   O6        1.0  0.25000  1.00000  0.74800  1.0000
  Sm  Sm1       1.0  0.83600  0.00000  0.00000  1.0000
