data_image0
_chemical_formula_structural       MgYb5
_chemical_formula_sum              "Mg1 Yb5"
_cell_length_a       3.80892
_cell_length_b       3.80892
_cell_length_c       18.1731
_cell_angle_alpha    90
_cell_angle_beta     90
_cell_angle_gamma    120

_space_group_name_H-M_alt    "P 1"
_space_group_IT_number       1

loop_
  _space_group_symop_operation_xyz
  'x, y, z'

loop_
  _atom_site_type_symbol
  _atom_site_label
  _atom_site_symmetry_multiplicity
  _atom_site_fract_x
  _atom_site_fract_y
  _atom_site_fract_z
  _atom_site_occupancy
  Mg  Mg1       1.0  0.66700  0.33300  0.83300  1.0000
  Yb  Yb1       1.0  0.00000  0.00000  0.98300  1.0000
  Yb  Yb2       1.0  0.66700  0.33300  0.15900  1.0000
  Yb  Yb3       1.0  0.00000  0.00000  0.33300  1.0000
  Yb  Yb4       1.0  0.66700  0.33300  0.50800  1.0000
  Yb  Yb5       1.0  0.00000  0.00000  0.68400  1.0000
