data_image0
_chemical_formula_structural       C2RhSm
_chemical_formula_sum              "C2 Rh1 Sm1"
_cell_length_a       3.63199
_cell_length_b       4.04785
_cell_length_c       4.04785
_cell_angle_alpha    108.833
_cell_angle_beta     90
_cell_angle_gamma    90

_space_group_name_H-M_alt    "P 1"
_space_group_IT_number       1

loop_
  _space_group_symop_operation_xyz
  'x, y, z'

loop_
  _atom_site_type_symbol
  _atom_site_label
  _atom_site_symmetry_multiplicity
  _atom_site_fract_x
  _atom_site_fract_y
  _atom_site_fract_z
  _atom_site_occupancy
  C   C1        1.0  0.50000  0.54300  0.17100  1.0000
  C   C2        1.0  0.50000  0.82900  0.45700  1.0000
  Rh  Rh1       1.0  0.50000  0.37400  0.62600  1.0000
  Sm  Sm1       1.0  0.00000  0.99900  0.00058  1.0000
