data_image0
_chemical_formula_structural       MnNaTe2
_chemical_formula_sum              "Mn1 Na1 Te2"
_cell_length_a       4.36696
_cell_length_b       4.367
_cell_length_c       7.53487
_cell_angle_alpha    90
_cell_angle_beta     89.9996
_cell_angle_gamma    120

_space_group_name_H-M_alt    "P 1"
_space_group_IT_number       1

loop_
  _space_group_symop_operation_xyz
  'x, y, z'

loop_
  _atom_site_type_symbol
  _atom_site_label
  _atom_site_symmetry_multiplicity
  _atom_site_fract_x
  _atom_site_fract_y
  _atom_site_fract_z
  _atom_site_occupancy
  Mn  Mn1       1.0  0.33300  0.66700  0.61100  1.0000
  Na  Na1       1.0  0.00000  0.00000  0.02950  1.0000
  Te  Te1       1.0  0.33300  0.66700  0.27900  1.0000
  Te  Te2       1.0  0.66700  0.33300  0.74600  1.0000
