data_image0
_chemical_formula_structural       BaGaHSi
_chemical_formula_sum              "Ba1 Ga1 H1 Si1"
_cell_length_a       4.28622
_cell_length_b       4.28626
_cell_length_c       5.27047
_cell_angle_alpha    90
_cell_angle_beta     90.0011
_cell_angle_gamma    120

_space_group_name_H-M_alt    "P 1"
_space_group_IT_number       1

loop_
  _space_group_symop_operation_xyz
  'x, y, z'

loop_
  _atom_site_type_symbol
  _atom_site_label
  _atom_site_symmetry_multiplicity
  _atom_site_fract_x
  _atom_site_fract_y
  _atom_site_fract_z
  _atom_site_occupancy
  Ba  Ba1       1.0  0.00001  0.00000  0.00000  1.0000
  Ga  Ga1       1.0  0.33300  0.66700  0.54100  1.0000
  H   H1        1.0  0.33300  0.66700  0.87300  1.0000
  Si  Si1       1.0  0.66700  0.33300  0.45700  1.0000
