data_image0
_chemical_formula_structural       C2FeGd
_chemical_formula_sum              "C2 Fe1 Gd1"
_cell_length_a       3.68653
_cell_length_b       3.73749
_cell_length_c       3.73749
_cell_angle_alpha    104.947
_cell_angle_beta     90
_cell_angle_gamma    90

_space_group_name_H-M_alt    "P 1"
_space_group_IT_number       1

loop_
  _space_group_symop_operation_xyz
  'x, y, z'

loop_
  _atom_site_type_symbol
  _atom_site_label
  _atom_site_symmetry_multiplicity
  _atom_site_fract_x
  _atom_site_fract_y
  _atom_site_fract_z
  _atom_site_occupancy
  C   C1        1.0  0.50000  0.54700  0.14500  1.0000
  C   C2        1.0  0.50000  0.85500  0.45300  1.0000
  Fe  Fe1       1.0  0.50000  0.38600  0.61400  1.0000
  Gd  Gd1       1.0  0.00000  0.99600  0.00424  1.0000
