data_image0
_chemical_formula_structural       C2NiTm
_chemical_formula_sum              "C2 Ni1 Tm1"
_cell_length_a       3.49267
_cell_length_b       3.7461
_cell_length_c       3.7461
_cell_angle_alpha    106.289
_cell_angle_beta     90
_cell_angle_gamma    90

_space_group_name_H-M_alt    "P 1"
_space_group_IT_number       1

loop_
  _space_group_symop_operation_xyz
  'x, y, z'

loop_
  _atom_site_type_symbol
  _atom_site_label
  _atom_site_symmetry_multiplicity
  _atom_site_fract_x
  _atom_site_fract_y
  _atom_site_fract_z
  _atom_site_occupancy
  C   C1        1.0  0.50000  0.54400  0.15100  1.0000
  C   C2        1.0  0.50000  0.84900  0.45600  1.0000
  Ni  Ni1       1.0  0.50000  0.38600  0.61400  1.0000
  Tm  Tm1       1.0  0.00000  0.99900  0.00102  1.0000
