data_image0
_chemical_formula_structural       LiS2V
_chemical_formula_sum              "Li1 S2 V1"
_cell_length_a       3.46436
_cell_length_b       3.46419
_cell_length_c       6.00041
_cell_angle_alpha    90
_cell_angle_beta     90.0042
_cell_angle_gamma    119.998

_space_group_name_H-M_alt    "P 1"
_space_group_IT_number       1

loop_
  _space_group_symop_operation_xyz
  'x, y, z'

loop_
  _atom_site_type_symbol
  _atom_site_label
  _atom_site_symmetry_multiplicity
  _atom_site_fract_x
  _atom_site_fract_y
  _atom_site_fract_z
  _atom_site_occupancy
  Li  Li1       1.0  0.00000  0.00000  0.50000  1.0000
  S   S1        1.0  0.33300  0.66700  0.23000  1.0000
  S   S2        1.0  0.66700  0.33300  0.77000  1.0000
  V   V1        1.0  0.00000  0.00000  0.00000  1.0000
