data_image0
_chemical_formula_structural       TeYb3
_chemical_formula_sum              "Te1 Yb3"
_cell_length_a       6.64369
_cell_length_b       6.64369
_cell_length_c       6.64369
_cell_angle_alpha    138.107
_cell_angle_beta     138.107
_cell_angle_gamma    60.7398

_space_group_name_H-M_alt    "P 1"
_space_group_IT_number       1

loop_
  _space_group_symop_operation_xyz
  'x, y, z'

loop_
  _atom_site_type_symbol
  _atom_site_label
  _atom_site_symmetry_multiplicity
  _atom_site_fract_x
  _atom_site_fract_y
  _atom_site_fract_z
  _atom_site_occupancy
  Te  Te1       1.0  0.00000  0.00000  0.00000  1.0000
  Yb  Yb1       1.0  0.75000  0.25000  0.50000  1.0000
  Yb  Yb2       1.0  0.25000  0.75000  0.50000  1.0000
  Yb  Yb3       1.0  0.50000  0.50000  0.00000  1.0000
