data_image0
_chemical_formula_structural       MoNb3
_chemical_formula_sum              "Mo1 Nb3"
_cell_length_a       5.56826
_cell_length_b       5.56826
_cell_length_c       5.56826
_cell_angle_alpha    139.67
_cell_angle_beta     139.67
_cell_angle_gamma    58.3551

_space_group_name_H-M_alt    "P 1"
_space_group_IT_number       1

loop_
  _space_group_symop_operation_xyz
  'x, y, z'

loop_
  _atom_site_type_symbol
  _atom_site_label
  _atom_site_symmetry_multiplicity
  _atom_site_fract_x
  _atom_site_fract_y
  _atom_site_fract_z
  _atom_site_occupancy
  Mo  Mo1       1.0  0.00000  0.00000  0.00000  1.0000
  Nb  Nb1       1.0  0.75000  0.25000  0.50000  1.0000
  Nb  Nb2       1.0  0.25000  0.75000  0.50000  1.0000
  Nb  Nb3       1.0  0.50000  0.50000  0.00000  1.0000
