data_image0
_chemical_formula_structural       Li4Mn2O8Si2
_chemical_formula_sum              "Li4 Mn2 O8 Si2"
_cell_length_a       6.3161
_cell_length_b       5.3625
_cell_length_c       4.97097
_cell_angle_alpha    90
_cell_angle_beta     90
_cell_angle_gamma    90

_space_group_name_H-M_alt    "P 1"
_space_group_IT_number       1

loop_
  _space_group_symop_operation_xyz
  'x, y, z'

loop_
  _atom_site_type_symbol
  _atom_site_label
  _atom_site_symmetry_multiplicity
  _atom_site_fract_x
  _atom_site_fract_y
  _atom_site_fract_z
  _atom_site_occupancy
  Li  Li1       1.0  0.25200  0.66900  0.44300  1.0000
  Li  Li2       1.0  0.74800  0.66900  0.44300  1.0000
  Li  Li3       1.0  0.24800  0.33100  0.94300  1.0000
  Li  Li4       1.0  0.75200  0.33100  0.94300  1.0000
  Mn  Mn1       1.0  0.00000  0.16800  0.44000  1.0000
  Mn  Mn2       1.0  0.50000  0.83200  0.94000  1.0000
  O   O1        1.0  0.00000  0.81000  0.28100  1.0000
  O   O2        1.0  0.28700  0.32300  0.33500  1.0000
  O   O3        1.0  0.71300  0.32300  0.33500  1.0000
  O   O4        1.0  0.50000  0.88400  0.35700  1.0000
  O   O5        1.0  0.50000  0.19000  0.78100  1.0000
  O   O6        1.0  0.21300  0.67700  0.83500  1.0000
  O   O7        1.0  0.78700  0.67700  0.83500  1.0000
  O   O8        1.0  0.00000  0.11600  0.85700  1.0000
  Si  Si1       1.0  0.50000  0.18100  0.45000  1.0000
  Si  Si2       1.0  0.00000  0.81900  0.95000  1.0000
