data_image0
_chemical_formula_structural       C8Dy4Mo4
_chemical_formula_sum              "C8 Dy4 Mo4"
_cell_length_a       5.70176
_cell_length_b       3.39347
_cell_length_c       10.7675
_cell_angle_alpha    90
_cell_angle_beta     90
_cell_angle_gamma    90

_space_group_name_H-M_alt    "P 1"
_space_group_IT_number       1

loop_
  _space_group_symop_operation_xyz
  'x, y, z'

loop_
  _atom_site_type_symbol
  _atom_site_label
  _atom_site_symmetry_multiplicity
  _atom_site_fract_x
  _atom_site_fract_y
  _atom_site_fract_z
  _atom_site_occupancy
  C   C1        1.0  0.72400  0.25000  0.01590  1.0000
  C   C2        1.0  0.84100  0.75000  0.24800  1.0000
  C   C3        1.0  0.34100  0.75000  0.25200  1.0000
  C   C4        1.0  0.22400  0.25000  0.48400  1.0000
  C   C5        1.0  0.77600  0.75000  0.51600  1.0000
  C   C6        1.0  0.65900  0.25000  0.74800  1.0000
  C   C7        1.0  0.15900  0.25000  0.75200  1.0000
  C   C8        1.0  0.27600  0.75000  0.98400  1.0000
  Dy  Dy1       1.0  0.08550  0.25000  0.13700  1.0000
  Dy  Dy2       1.0  0.58500  0.25000  0.36300  1.0000
  Dy  Dy3       1.0  0.41500  0.75000  0.63700  1.0000
  Dy  Dy4       1.0  0.91500  0.75000  0.86300  1.0000
  Mo  Mo1       1.0  0.59700  0.75000  0.10900  1.0000
  Mo  Mo2       1.0  0.09670  0.75000  0.39100  1.0000
  Mo  Mo3       1.0  0.90300  0.25000  0.60900  1.0000
  Mo  Mo4       1.0  0.40300  0.25000  0.89100  1.0000
