data_image0
_chemical_formula_structural       C2H6O12U2
_chemical_formula_sum              "C2 H6 O12 U2"
_cell_length_a       5.45684
_cell_length_b       5.94804
_cell_length_c       7.69566
_cell_angle_alpha    85.43
_cell_angle_beta     91.0024
_cell_angle_gamma    83.607

_space_group_name_H-M_alt    "P 1"
_space_group_IT_number       1

loop_
  _space_group_symop_operation_xyz
  'x, y, z'

loop_
  _atom_site_type_symbol
  _atom_site_label
  _atom_site_symmetry_multiplicity
  _atom_site_fract_x
  _atom_site_fract_y
  _atom_site_fract_z
  _atom_site_occupancy
  C   C1        1.0  0.97700  0.61700  0.45100  1.0000
  C   C2        1.0  0.02290  0.38300  0.54900  1.0000
  H   H1        1.0  0.79800  0.24300  0.99900  1.0000
  H   H2        1.0  0.20200  0.75700  0.00141  1.0000
  H   H3        1.0  0.46800  0.84600  0.18200  1.0000
  H   H4        1.0  0.64800  0.89300  0.35200  1.0000
  H   H5        1.0  0.35200  0.10700  0.64800  1.0000
  H   H6        1.0  0.53200  0.15400  0.81800  1.0000
  O   O1        1.0  0.37400  0.70100  0.03640  1.0000
  O   O2        1.0  0.11700  0.25500  0.07640  1.0000
  O   O3        1.0  0.52400  0.96100  0.26100  1.0000
  O   O4        1.0  0.08380  0.64900  0.31000  1.0000
  O   O5        1.0  0.61300  0.41600  0.32900  1.0000
  O   O6        1.0  0.17100  0.23500  0.48100  1.0000
  O   O7        1.0  0.82900  0.76500  0.51900  1.0000
  O   O8        1.0  0.38700  0.58400  0.67100  1.0000
  O   O9        1.0  0.91600  0.35100  0.69000  1.0000
  O   O10       1.0  0.47600  0.03910  0.73900  1.0000
  O   O11       1.0  0.88300  0.74500  0.92400  1.0000
  O   O12       1.0  0.62600  0.29900  0.96400  1.0000
  U   U1        1.0  0.36300  0.34000  0.20400  1.0000
  U   U2        1.0  0.63700  0.66000  0.79600  1.0000
