data_image0
_chemical_formula_structural       C2H4Mn2O12P2
_chemical_formula_sum              "C2 H4 Mn2 O12 P2"
_cell_length_a       5.47541
_cell_length_b       5.92689
_cell_length_c       8.04425
_cell_angle_alpha    68.3834
_cell_angle_beta     97.9542
_cell_angle_gamma    112.064

_space_group_name_H-M_alt    "P 1"
_space_group_IT_number       1

loop_
  _space_group_symop_operation_xyz
  'x, y, z'

loop_
  _atom_site_type_symbol
  _atom_site_label
  _atom_site_symmetry_multiplicity
  _atom_site_fract_x
  _atom_site_fract_y
  _atom_site_fract_z
  _atom_site_occupancy
  C   C1        1.0  0.44600  0.10300  0.00000  1.0000
  C   C2        1.0  0.55400  0.89700  0.00000  1.0000
  H   H1        1.0  0.17800  0.17700  0.18400  1.0000
  H   H2        1.0  0.82200  0.63800  0.18400  1.0000
  H   H3        1.0  0.17800  0.36200  0.81600  1.0000
  H   H4        1.0  0.82200  0.82300  0.81600  1.0000
  Mn  Mn1       1.0  0.50000  0.80700  0.38700  1.0000
  Mn  Mn2       1.0  0.50000  0.19300  0.61300  1.0000
  O   O1        1.0  0.40700  0.10500  0.15100  1.0000
  O   O2        1.0  0.59300  0.74400  0.15100  1.0000
  O   O3        1.0  0.00447  0.18100  0.21100  1.0000
  O   O4        1.0  0.99600  0.60700  0.21100  1.0000
  O   O5        1.0  0.74800  0.16600  0.44400  1.0000
  O   O6        1.0  0.25200  0.39000  0.44400  1.0000
  O   O7        1.0  0.74800  0.61000  0.55600  1.0000
  O   O8        1.0  0.25200  0.83400  0.55600  1.0000
  O   O9        1.0  0.00447  0.39300  0.78900  1.0000
  O   O10       1.0  0.99600  0.81900  0.78900  1.0000
  O   O11       1.0  0.40700  0.25600  0.84900  1.0000
  O   O12       1.0  0.59300  0.89500  0.84900  1.0000
  P   P1        1.0  0.00000  0.33300  0.33400  1.0000
  P   P2        1.0  0.00000  0.66700  0.66600  1.0000
