data_image0
_chemical_formula_structural       Pb6Tb10
_chemical_formula_sum              "Pb6 Tb10"
_cell_length_a       9.09069
_cell_length_b       9.09069
_cell_length_c       6.64082
_cell_angle_alpha    90
_cell_angle_beta     90
_cell_angle_gamma    120

_space_group_name_H-M_alt    "P 1"
_space_group_IT_number       1

loop_
  _space_group_symop_operation_xyz
  'x, y, z'

loop_
  _atom_site_type_symbol
  _atom_site_label
  _atom_site_symmetry_multiplicity
  _atom_site_fract_x
  _atom_site_fract_y
  _atom_site_fract_z
  _atom_site_occupancy
  Pb  Pb1       1.0  0.60500  0.00000  0.25000  1.0000
  Pb  Pb2       1.0  0.00000  0.60500  0.25000  1.0000
  Pb  Pb3       1.0  0.39500  0.39500  0.25000  1.0000
  Pb  Pb4       1.0  0.39500  0.00000  0.75000  1.0000
  Pb  Pb5       1.0  0.00000  0.39500  0.75000  1.0000
  Pb  Pb6       1.0  0.60500  0.60500  0.75000  1.0000
  Tb  Tb1       1.0  0.66700  0.33300  0.00000  1.0000
  Tb  Tb2       1.0  0.33300  0.66700  0.00000  1.0000
  Tb  Tb3       1.0  0.76300  0.76300  0.25000  1.0000
  Tb  Tb4       1.0  0.23700  1.00000  0.25000  1.0000
  Tb  Tb5       1.0  0.00000  0.23700  0.25000  1.0000
  Tb  Tb6       1.0  0.66700  0.33300  0.50000  1.0000
  Tb  Tb7       1.0  0.33300  0.66700  0.50000  1.0000
  Tb  Tb8       1.0  0.23700  0.23700  0.75000  1.0000
  Tb  Tb9       1.0  0.76300  0.00000  0.75000  1.0000
  Tb  Tb10      1.0  0.00000  0.76300  0.75000  1.0000
