data_image0
_chemical_formula_structural       C2H12N6NiS2
_chemical_formula_sum              "C2 H12 N6 Ni1 S2"
_cell_length_a       5.54036
_cell_length_b       6.89621
_cell_length_c       6.89621
_cell_angle_alpha    70.8598
_cell_angle_beta     101.778
_cell_angle_gamma    101.778

_space_group_name_H-M_alt    "P 1"
_space_group_IT_number       1

loop_
  _space_group_symop_operation_xyz
  'x, y, z'

loop_
  _atom_site_type_symbol
  _atom_site_label
  _atom_site_symmetry_multiplicity
  _atom_site_fract_x
  _atom_site_fract_y
  _atom_site_fract_z
  _atom_site_occupancy
  C   C1        1.0  0.45700  0.24000  0.24000  1.0000
  C   C2        1.0  0.54300  0.76000  0.76000  1.0000
  H   H1        1.0  0.74200  0.29000  0.99900  1.0000
  H   H2        1.0  0.25800  0.71000  0.00077  1.0000
  H   H3        1.0  0.02260  0.60100  0.13400  1.0000
  H   H4        1.0  0.28100  0.71500  0.24300  1.0000
  H   H5        1.0  0.71900  0.75700  0.28500  1.0000
  H   H6        1.0  0.74200  0.99900  0.29000  1.0000
  H   H7        1.0  0.97700  0.86600  0.39900  1.0000
  H   H8        1.0  0.02260  0.13400  0.60100  1.0000
  H   H9        1.0  0.25800  0.00077  0.71000  1.0000
  H   H10       1.0  0.28100  0.24300  0.71500  1.0000
  H   H11       1.0  0.71900  0.28500  0.75700  1.0000
  H   H12       1.0  0.97700  0.39900  0.86600  1.0000
  N   N1        1.0  0.16200  0.72500  0.10600  1.0000
  N   N2        1.0  0.29500  0.14800  0.14800  1.0000
  N   N3        1.0  0.83800  0.89400  0.27500  1.0000
  N   N4        1.0  0.16200  0.10600  0.72500  1.0000
  N   N5        1.0  0.70500  0.85200  0.85200  1.0000
  N   N6        1.0  0.83800  0.27500  0.89400  1.0000
  Ni  Ni1       1.0  0.00000  0.00000  0.00000  1.0000
  S   S1        1.0  0.69000  0.36200  0.36200  1.0000
  S   S2        1.0  0.31000  0.63800  0.63800  1.0000
