data_image0
_chemical_formula_structural       C2H6Np2O10P2
_chemical_formula_sum              "C2 H6 Np2 O10 P2"
_cell_length_a       6.02978
_cell_length_b       6.69415
_cell_length_c       7.09101
_cell_angle_alpha    90.7139
_cell_angle_beta     99.8989
_cell_angle_gamma    97.3786

_space_group_name_H-M_alt    "P 1"
_space_group_IT_number       1

loop_
  _space_group_symop_operation_xyz
  'x, y, z'

loop_
  _atom_site_type_symbol
  _atom_site_label
  _atom_site_symmetry_multiplicity
  _atom_site_fract_x
  _atom_site_fract_y
  _atom_site_fract_z
  _atom_site_occupancy
  C   C1        1.0  0.37100  0.67300  0.29200  1.0000
  C   C2        1.0  0.62900  0.32700  0.70800  1.0000
  H   H1        1.0  0.41600  0.59000  0.17400  1.0000
  H   H2        1.0  0.46100  0.82600  0.30300  1.0000
  H   H3        1.0  0.42100  0.59800  0.42700  1.0000
  H   H4        1.0  0.57900  0.40200  0.57300  1.0000
  H   H5        1.0  0.53900  0.17400  0.69700  1.0000
  H   H6        1.0  0.58400  0.41000  0.82600  1.0000
  Np  Np1       1.0  0.97600  0.14300  0.24700  1.0000
  Np  Np2       1.0  0.02410  0.85700  0.75300  1.0000
  O   O1        1.0  0.00842  0.81600  0.08020  1.0000
  O   O2        1.0  0.68100  0.08590  0.19900  1.0000
  O   O3        1.0  0.93200  0.47900  0.23800  1.0000
  O   O4        1.0  0.27100  0.20000  0.29500  1.0000
  O   O5        1.0  0.02140  0.81800  0.42200  1.0000
  O   O6        1.0  0.97900  0.18200  0.57800  1.0000
  O   O7        1.0  0.72900  0.80000  0.70500  1.0000
  O   O8        1.0  0.06770  0.52100  0.76200  1.0000
  O   O9        1.0  0.31900  0.91400  0.80100  1.0000
  O   O10       1.0  0.99200  0.18400  0.92000  1.0000
  P   P1        1.0  0.07390  0.68600  0.25700  1.0000
  P   P2        1.0  0.92600  0.31400  0.74300  1.0000
