data_image0
_chemical_formula_structural       C6H12O6
_chemical_formula_sum              "C6 H12 O6"
_cell_length_a       5.85555
_cell_length_b       5.85555
_cell_length_c       5.85555
_cell_angle_alpha    101.973
_cell_angle_beta     101.973
_cell_angle_gamma    101.973

_space_group_name_H-M_alt    "P 1"
_space_group_IT_number       1

loop_
  _space_group_symop_operation_xyz
  'x, y, z'

loop_
  _atom_site_type_symbol
  _atom_site_label
  _atom_site_symmetry_multiplicity
  _atom_site_fract_x
  _atom_site_fract_y
  _atom_site_fract_z
  _atom_site_occupancy
  C   C1        1.0  0.88600  0.17900  0.00937  1.0000
  C   C2        1.0  0.00937  0.88600  0.17900  1.0000
  C   C3        1.0  0.50900  0.67900  0.38600  1.0000
  C   C4        1.0  0.67900  0.38600  0.50900  1.0000
  C   C5        1.0  0.38600  0.50900  0.67900  1.0000
  C   C6        1.0  0.17900  0.00937  0.88600  1.0000
  H   H1        1.0  0.32200  0.15200  0.02740  1.0000
  H   H2        1.0  0.02740  0.32200  0.15200  1.0000
  H   H3        1.0  0.44400  0.74100  0.22700  1.0000
  H   H4        1.0  0.94400  0.72700  0.24100  1.0000
  H   H5        1.0  0.15200  0.02740  0.32200  1.0000
  H   H6        1.0  0.74100  0.22700  0.44400  1.0000
  H   H7        1.0  0.65200  0.82200  0.52700  1.0000
  H   H8        1.0  0.82200  0.52700  0.65200  1.0000
  H   H9        1.0  0.24100  0.94400  0.72700  1.0000
  H   H10       1.0  0.22700  0.44400  0.74100  1.0000
  H   H11       1.0  0.52700  0.65200  0.82200  1.0000
  H   H12       1.0  0.72700  0.24100  0.94400  1.0000
  O   O1        1.0  0.80800  0.98000  0.10400  1.0000
  O   O2        1.0  0.60400  0.48000  0.30800  1.0000
  O   O3        1.0  0.30800  0.60400  0.48000  1.0000
  O   O4        1.0  0.48000  0.30800  0.60400  1.0000
  O   O5        1.0  0.98000  0.10400  0.80800  1.0000
  O   O6        1.0  0.10400  0.80800  0.98000  1.0000
