data_image0
_chemical_formula_structural       C4H4K4O10
_chemical_formula_sum              "C4 H4 K4 O10"
_cell_length_a       5.43354
_cell_length_b       5.43354
_cell_length_c       10.237
_cell_angle_alpha    96.0859
_cell_angle_beta     103.185
_cell_angle_gamma    111.748

_space_group_name_H-M_alt    "P 1"
_space_group_IT_number       1

loop_
  _space_group_symop_operation_xyz
  'x, y, z'

loop_
  _atom_site_type_symbol
  _atom_site_label
  _atom_site_symmetry_multiplicity
  _atom_site_fract_x
  _atom_site_fract_y
  _atom_site_fract_z
  _atom_site_occupancy
  C   C1        1.0  0.49300  0.90700  0.05330  1.0000
  C   C2        1.0  0.35400  0.44000  0.44700  1.0000
  C   C3        1.0  0.64600  0.56000  0.55300  1.0000
  C   C4        1.0  0.50700  0.09290  0.94700  1.0000
  H   H1        1.0  0.74900  0.63500  0.19200  1.0000
  H   H2        1.0  0.94200  0.55600  0.30800  1.0000
  H   H3        1.0  0.05770  0.44400  0.69200  1.0000
  H   H4        1.0  0.25100  0.36500  0.80800  1.0000
  K   K1        1.0  0.16900  0.30300  0.13400  1.0000
  K   K2        1.0  0.66900  0.03470  0.36600  1.0000
  K   K3        1.0  0.33100  0.96500  0.63400  1.0000
  K   K4        1.0  0.83100  0.69700  0.86600  1.0000
  O   O1        1.0  0.70300  0.85200  0.09260  1.0000
  O   O2        1.0  0.28100  0.82800  0.09490  1.0000
  O   O3        1.0  0.74700  0.49700  0.25000  1.0000
  O   O4        1.0  0.23300  0.18600  0.40500  1.0000
  O   O5        1.0  0.25900  0.61100  0.40700  1.0000
  O   O6        1.0  0.74100  0.38900  0.59300  1.0000
  O   O7        1.0  0.76700  0.81400  0.59500  1.0000
  O   O8        1.0  0.25300  0.50300  0.75000  1.0000
  O   O9        1.0  0.71900  0.17200  0.90500  1.0000
  O   O10       1.0  0.29700  0.14800  0.90700  1.0000
