data_image0
_chemical_formula_structural       C4H8I2N4Na2O4
_chemical_formula_sum              "C4 H8 I2 N4 Na2 O4"
_cell_length_a       10.387
_cell_length_b       4.61112
_cell_length_c       7.0567
_cell_angle_alpha    90
_cell_angle_beta     96.8919
_cell_angle_gamma    90

_space_group_name_H-M_alt    "P 1"
_space_group_IT_number       1

loop_
  _space_group_symop_operation_xyz
  'x, y, z'

loop_
  _atom_site_type_symbol
  _atom_site_label
  _atom_site_symmetry_multiplicity
  _atom_site_fract_x
  _atom_site_fract_y
  _atom_site_fract_z
  _atom_site_occupancy
  C   C1        1.0  0.80900  0.21800  0.02880  1.0000
  C   C2        1.0  0.19100  0.71800  0.47100  1.0000
  C   C3        1.0  0.80900  0.28200  0.52900  1.0000
  C   C4        1.0  0.19100  0.78200  0.97100  1.0000
  H   H1        1.0  0.33700  0.37600  0.16600  1.0000
  H   H2        1.0  0.65100  0.59500  0.20200  1.0000
  H   H3        1.0  0.34900  0.09500  0.29800  1.0000
  H   H4        1.0  0.66300  0.87600  0.33400  1.0000
  H   H5        1.0  0.33700  0.12400  0.66600  1.0000
  H   H6        1.0  0.65100  0.90500  0.70200  1.0000
  H   H7        1.0  0.34900  0.40500  0.79800  1.0000
  H   H8        1.0  0.66300  0.62400  0.83400  1.0000
  I   I1        1.0  0.00000  0.00000  0.00000  1.0000
  I   I2        1.0  0.00000  0.50000  0.50000  1.0000
  N   N1        1.0  0.70900  0.32800  0.04260  1.0000
  N   N2        1.0  0.29100  0.82800  0.45700  1.0000
  N   N3        1.0  0.70900  0.17200  0.54300  1.0000
  N   N4        1.0  0.29100  0.67200  0.95700  1.0000
  Na  Na1       1.0  0.50000  0.50000  0.50000  1.0000
  Na  Na2       1.0  0.50000  0.00000  0.00000  1.0000
  O   O1        1.0  0.39900  0.24200  0.23600  1.0000
  O   O2        1.0  0.60100  0.74200  0.26400  1.0000
  O   O3        1.0  0.39900  0.25800  0.73600  1.0000
  O   O4        1.0  0.60100  0.75800  0.76400  1.0000
