data_image0
_chemical_formula_structural       C8H4O12Sn4
_chemical_formula_sum              "C8 H4 O12 Sn4"
_cell_length_a       7.34486
_cell_length_b       7.34486
_cell_length_c       8.30829
_cell_angle_alpha    92.8366
_cell_angle_beta     116.818
_cell_angle_gamma    115.701

_space_group_name_H-M_alt    "P 1"
_space_group_IT_number       1

loop_
  _space_group_symop_operation_xyz
  'x, y, z'

loop_
  _atom_site_type_symbol
  _atom_site_label
  _atom_site_symmetry_multiplicity
  _atom_site_fract_x
  _atom_site_fract_y
  _atom_site_fract_z
  _atom_site_occupancy
  C   C1        1.0  0.91100  0.22200  0.32000  1.0000
  C   C2        1.0  0.09800  0.40900  0.32000  1.0000
  C   C3        1.0  0.76100  0.52300  0.47200  1.0000
  C   C4        1.0  0.94900  0.71100  0.47200  1.0000
  C   C5        1.0  0.05110  0.28900  0.52800  1.0000
  C   C6        1.0  0.23900  0.47700  0.52800  1.0000
  C   C7        1.0  0.90200  0.59100  0.68000  1.0000
  C   C8        1.0  0.08850  0.77800  0.68000  1.0000
  H   H1        1.0  0.23700  0.01020  0.45700  1.0000
  H   H2        1.0  0.44700  0.22000  0.45700  1.0000
  H   H3        1.0  0.55300  0.78000  0.54300  1.0000
  H   H4        1.0  0.76300  0.99000  0.54300  1.0000
  O   O1        1.0  0.42700  0.61800  0.04480  1.0000
  O   O2        1.0  0.71400  0.07020  0.18800  1.0000
  O   O3        1.0  0.11800  0.47400  0.18800  1.0000
  O   O4        1.0  0.56200  0.36400  0.34800  1.0000
  O   O5        1.0  0.98400  0.78600  0.34800  1.0000
  O   O6        1.0  0.61200  0.85000  0.46100  1.0000
  O   O7        1.0  0.38800  0.15000  0.53900  1.0000
  O   O8        1.0  0.01570  0.21400  0.65200  1.0000
  O   O9        1.0  0.43800  0.63600  0.65200  1.0000
  O   O10       1.0  0.88200  0.52600  0.81200  1.0000
  O   O11       1.0  0.28600  0.93000  0.81200  1.0000
  O   O12       1.0  0.57300  0.38200  0.95500  1.0000
  Sn  Sn1       1.0  0.28500  0.28500  0.00000  1.0000
  Sn  Sn2       1.0  0.71500  0.71500  0.00000  1.0000
  Sn  Sn3       1.0  0.34500  0.81100  0.15700  1.0000
  Sn  Sn4       1.0  0.65500  0.18900  0.84300  1.0000
