data_image0
_chemical_formula_structural       C4H8O12Zn2
_chemical_formula_sum              "C4 H8 O12 Zn2"
_cell_length_a       5.46535
_cell_length_b       6.16304
_cell_length_c       8.09215
_cell_angle_alpha    97.352
_cell_angle_beta     109.736
_cell_angle_gamma    63.6792

_space_group_name_H-M_alt    "P 1"
_space_group_IT_number       1

loop_
  _space_group_symop_operation_xyz
  'x, y, z'

loop_
  _atom_site_type_symbol
  _atom_site_label
  _atom_site_symmetry_multiplicity
  _atom_site_fract_x
  _atom_site_fract_y
  _atom_site_fract_z
  _atom_site_occupancy
  C   C1        1.0  0.63400  0.24800  0.14800  1.0000
  C   C2        1.0  0.73300  0.25200  0.35200  1.0000
  C   C3        1.0  0.26700  0.74800  0.64800  1.0000
  C   C4        1.0  0.36600  0.75200  0.85200  1.0000
  H   H1        1.0  0.82200  0.69100  0.14100  1.0000
  H   H2        1.0  0.30300  0.81100  0.14900  1.0000
  H   H3        1.0  0.96500  0.68900  0.35100  1.0000
  H   H4        1.0  0.37300  0.80900  0.35900  1.0000
  H   H5        1.0  0.62700  0.19100  0.64100  1.0000
  H   H6        1.0  0.03510  0.31100  0.64900  1.0000
  H   H7        1.0  0.69700  0.18900  0.85100  1.0000
  H   H8        1.0  0.17800  0.30900  0.85900  1.0000
  O   O1        1.0  0.80100  0.24800  0.07180  1.0000
  O   O2        1.0  0.39200  0.24400  0.07260  1.0000
  O   O3        1.0  0.00539  0.62800  0.23900  1.0000
  O   O4        1.0  0.39300  0.87200  0.26100  1.0000
  O   O5        1.0  0.56400  0.25600  0.42700  1.0000
  O   O6        1.0  0.97700  0.25200  0.42800  1.0000
  O   O7        1.0  0.02270  0.74800  0.57200  1.0000
  O   O8        1.0  0.43600  0.74400  0.57300  1.0000
  O   O9        1.0  0.60700  0.12800  0.73900  1.0000
  O   O10       1.0  0.99500  0.37200  0.76100  1.0000
  O   O11       1.0  0.60800  0.75600  0.92700  1.0000
  O   O12       1.0  0.19900  0.75200  0.92800  1.0000
  Zn  Zn1       1.0  0.18500  0.25000  0.25000  1.0000
  Zn  Zn2       1.0  0.81500  0.75000  0.75000  1.0000
