data_image0
_chemical_formula_structural       C6H16N4O2
_chemical_formula_sum              "C6 H16 N4 O2"
_cell_length_a       4.46798
_cell_length_b       5.92738
_cell_length_c       9.67991
_cell_angle_alpha    94.99
_cell_angle_beta     103.343
_cell_angle_gamma    67.8586

_space_group_name_H-M_alt    "P 1"
_space_group_IT_number       1

loop_
  _space_group_symop_operation_xyz
  'x, y, z'

loop_
  _atom_site_type_symbol
  _atom_site_label
  _atom_site_symmetry_multiplicity
  _atom_site_fract_x
  _atom_site_fract_y
  _atom_site_fract_z
  _atom_site_occupancy
  C   C1        1.0  0.95600  0.00000  0.00000  1.0000
  C   C2        1.0  0.83900  0.35800  0.15300  1.0000
  C   C3        1.0  0.93600  0.85800  0.34700  1.0000
  C   C4        1.0  0.20600  0.50000  0.50000  1.0000
  C   C5        1.0  0.44600  0.14200  0.65300  1.0000
  C   C6        1.0  0.04370  0.64200  0.84700  1.0000
  H   H1        1.0  0.51800  0.16200  0.06210  1.0000
  H   H2        1.0  0.90600  0.47400  0.09280  1.0000
  H   H3        1.0  0.63200  0.47400  0.20000  1.0000
  H   H4        1.0  0.05060  0.27000  0.23900  1.0000
  H   H5        1.0  0.06110  0.77000  0.26100  1.0000
  H   H6        1.0  0.68200  0.97400  0.30000  1.0000
  H   H7        1.0  0.06360  0.97400  0.40700  1.0000
  H   H8        1.0  0.70600  0.66200  0.43800  1.0000
  H   H9        1.0  0.93000  0.33800  0.56200  1.0000
  H   H10       1.0  0.63000  0.02620  0.59300  1.0000
  H   H11       1.0  0.35600  0.02590  0.70000  1.0000
  H   H12       1.0  0.57100  0.23000  0.73900  1.0000
  H   H13       1.0  0.08140  0.73000  0.76100  1.0000
  H   H14       1.0  0.90600  0.52600  0.80000  1.0000
  H   H15       1.0  0.28700  0.52600  0.90700  1.0000
  H   H16       1.0  0.61800  0.83800  0.93800  1.0000
  N   N1        1.0  0.73700  0.18100  0.06200  1.0000
  N   N2        1.0  0.92500  0.68100  0.43800  1.0000
  N   N3        1.0  0.16800  0.31900  0.56200  1.0000
  N   N4        1.0  0.85600  0.81900  0.93800  1.0000
  O   O1        1.0  0.23900  0.00000  0.00000  1.0000
  O   O2        1.0  0.48900  0.50000  0.50000  1.0000
