data_image0
_chemical_formula_structural       C4H12O12
_chemical_formula_sum              "C4 H12 O12"
_cell_length_a       9.52063
_cell_length_b       4.83234
_cell_length_c       4.88112
_cell_angle_alpha    90
_cell_angle_beta     100.722
_cell_angle_gamma    90

_space_group_name_H-M_alt    "P 1"
_space_group_IT_number       1

loop_
  _space_group_symop_operation_xyz
  'x, y, z'

loop_
  _atom_site_type_symbol
  _atom_site_label
  _atom_site_symmetry_multiplicity
  _atom_site_fract_x
  _atom_site_fract_y
  _atom_site_fract_z
  _atom_site_occupancy
  C   C1        1.0  0.05310  0.01830  0.40100  1.0000
  C   C2        1.0  0.55300  0.48200  0.40100  1.0000
  C   C3        1.0  0.44700  0.51800  0.59900  1.0000
  C   C4        1.0  0.94700  0.98200  0.59900  1.0000
  H   H1        1.0  0.14500  0.31100  0.00921  1.0000
  H   H2        1.0  0.64500  0.18900  0.00921  1.0000
  H   H3        1.0  0.90100  0.43300  0.20500  1.0000
  H   H4        1.0  0.40100  0.06690  0.20500  1.0000
  H   H5        1.0  0.73300  0.62800  0.28700  1.0000
  H   H6        1.0  0.23300  0.87200  0.28700  1.0000
  H   H7        1.0  0.26700  0.37200  0.71300  1.0000
  H   H8        1.0  0.76700  0.12800  0.71300  1.0000
  H   H9        1.0  0.59900  0.93300  0.79500  1.0000
  H   H10       1.0  0.09880  0.56700  0.79500  1.0000
  H   H11       1.0  0.35500  0.81100  0.99100  1.0000
  H   H12       1.0  0.85500  0.68900  0.99100  1.0000
  O   O1        1.0  0.32500  0.92600  0.13900  1.0000
  O   O2        1.0  0.82500  0.57400  0.13900  1.0000
  O   O3        1.0  0.03760  0.21500  0.23300  1.0000
  O   O4        1.0  0.53800  0.28500  0.23300  1.0000
  O   O5        1.0  0.65200  0.66600  0.42900  1.0000
  O   O6        1.0  0.15200  0.83400  0.42900  1.0000
  O   O7        1.0  0.34800  0.33400  0.57100  1.0000
  O   O8        1.0  0.84800  0.16600  0.57100  1.0000
  O   O9        1.0  0.96200  0.78500  0.76700  1.0000
  O   O10       1.0  0.46200  0.71500  0.76700  1.0000
  O   O11       1.0  0.17500  0.42600  0.86100  1.0000
  O   O12       1.0  0.67500  0.07420  0.86100  1.0000
