data_image0
_chemical_formula_structural       B2C8H8N10
_chemical_formula_sum              "B2 C8 H8 N10"
_cell_length_a       8.65877
_cell_length_b       6.91866
_cell_length_c       6.91866
_cell_angle_alpha    90
_cell_angle_beta     113.548
_cell_angle_gamma    113.548

_space_group_name_H-M_alt    "P 1"
_space_group_IT_number       1

loop_
  _space_group_symop_operation_xyz
  'x, y, z'

loop_
  _atom_site_type_symbol
  _atom_site_label
  _atom_site_symmetry_multiplicity
  _atom_site_fract_x
  _atom_site_fract_y
  _atom_site_fract_z
  _atom_site_occupancy
  B   B1        1.0  0.75000  0.87500  0.12500  1.0000
  B   B2        1.0  0.25000  0.12500  0.87500  1.0000
  C   C1        1.0  0.87600  0.78400  0.08390  1.0000
  C   C2        1.0  0.37600  0.08390  0.09250  1.0000
  C   C3        1.0  0.62400  0.70800  0.21600  1.0000
  C   C4        1.0  0.87600  0.09250  0.29200  1.0000
  C   C5        1.0  0.12400  0.90700  0.70800  1.0000
  C   C6        1.0  0.37600  0.29200  0.78400  1.0000
  C   C7        1.0  0.62400  0.91600  0.90700  1.0000
  C   C8        1.0  0.12400  0.21600  0.91600  1.0000
  H   H1        1.0  0.16400  0.65100  0.23300  1.0000
  H   H2        1.0  0.33600  0.56900  0.34900  1.0000
  H   H3        1.0  0.16400  0.51300  0.43100  1.0000
  H   H4        1.0  0.33600  0.76700  0.48700  1.0000
  H   H5        1.0  0.66400  0.23300  0.51300  1.0000
  H   H6        1.0  0.83600  0.48700  0.56900  1.0000
  H   H7        1.0  0.66400  0.43100  0.65100  1.0000
  H   H8        1.0  0.83600  0.34900  0.76700  1.0000
  N   N1        1.0  0.96900  0.71600  0.05280  1.0000
  N   N2        1.0  0.46900  0.05280  0.25400  1.0000
  N   N3        1.0  0.53100  0.58400  0.28400  1.0000
  N   N4        1.0  0.25000  0.62500  0.37500  1.0000
  N   N5        1.0  0.96900  0.25400  0.41600  1.0000
  N   N6        1.0  0.03080  0.74600  0.58400  1.0000
  N   N7        1.0  0.75000  0.37500  0.62500  1.0000
  N   N8        1.0  0.46900  0.41600  0.71600  1.0000
  N   N9        1.0  0.53100  0.94700  0.74600  1.0000
  N   N10       1.0  0.03080  0.28400  0.94700  1.0000
