data_image0
_chemical_formula_structural       C8H8N8O4
_chemical_formula_sum              "C8 H8 N8 O4"
_cell_length_a       8.36491
_cell_length_b       4.97488
_cell_length_c       6.98157
_cell_angle_alpha    90
_cell_angle_beta     90
_cell_angle_gamma    90

_space_group_name_H-M_alt    "P 1"
_space_group_IT_number       1

loop_
  _space_group_symop_operation_xyz
  'x, y, z'

loop_
  _atom_site_type_symbol
  _atom_site_label
  _atom_site_symmetry_multiplicity
  _atom_site_fract_x
  _atom_site_fract_y
  _atom_site_fract_z
  _atom_site_occupancy
  C   C1        1.0  0.62400  0.25000  0.05540  1.0000
  C   C2        1.0  0.26200  0.75000  0.10600  1.0000
  C   C3        1.0  0.76200  0.75000  0.39400  1.0000
  C   C4        1.0  0.12400  0.25000  0.44500  1.0000
  C   C5        1.0  0.87600  0.75000  0.55500  1.0000
  C   C6        1.0  0.23800  0.25000  0.60600  1.0000
  C   C7        1.0  0.73800  0.25000  0.89400  1.0000
  C   C8        1.0  0.37600  0.75000  0.94500  1.0000
  H   H1        1.0  0.92000  0.25000  0.09020  1.0000
  H   H2        1.0  0.01750  0.75000  0.15100  1.0000
  H   H3        1.0  0.51800  0.75000  0.34900  1.0000
  H   H4        1.0  0.42000  0.25000  0.41000  1.0000
  H   H5        1.0  0.58000  0.75000  0.59000  1.0000
  H   H6        1.0  0.48200  0.25000  0.65100  1.0000
  H   H7        1.0  0.98200  0.25000  0.84900  1.0000
  H   H8        1.0  0.07950  0.75000  0.91000  1.0000
  N   N1        1.0  0.11000  0.75000  0.05250  1.0000
  N   N2        1.0  0.52600  0.25000  0.17400  1.0000
  N   N3        1.0  0.02600  0.25000  0.32600  1.0000
  N   N4        1.0  0.61000  0.75000  0.44800  1.0000
  N   N5        1.0  0.39000  0.25000  0.55200  1.0000
  N   N6        1.0  0.97400  0.75000  0.67400  1.0000
  N   N7        1.0  0.47400  0.75000  0.82600  1.0000
  N   N8        1.0  0.89000  0.25000  0.94800  1.0000
  O   O1        1.0  0.81500  0.75000  0.22800  1.0000
  O   O2        1.0  0.31500  0.75000  0.27200  1.0000
  O   O3        1.0  0.68500  0.25000  0.72800  1.0000
  O   O4        1.0  0.18500  0.25000  0.77200  1.0000
