data_image0
_chemical_formula_structural       Ge2Mn2O10Pr2
_chemical_formula_sum              "Ge2 Mn2 O10 Pr2"
_cell_length_a       5.65115
_cell_length_b       5.76425
_cell_length_c       6.96956
_cell_angle_alpha    106.237
_cell_angle_beta     99.392
_cell_angle_gamma    107.604

_space_group_name_H-M_alt    "P 1"
_space_group_IT_number       1

loop_
  _space_group_symop_operation_xyz
  'x, y, z'

loop_
  _atom_site_type_symbol
  _atom_site_label
  _atom_site_symmetry_multiplicity
  _atom_site_fract_x
  _atom_site_fract_y
  _atom_site_fract_z
  _atom_site_occupancy
  Ge  Ge1       1.0  0.30500  0.16300  0.23300  1.0000
  Ge  Ge2       1.0  0.69500  0.83700  0.76700  1.0000
  Mn  Mn1       1.0  0.00000  0.50000  0.00000  1.0000
  Mn  Mn2       1.0  0.00001  0.50000  0.50000  1.0000
  O   O1        1.0  0.27300  0.85200  0.07440  1.0000
  O   O2        1.0  0.32400  0.36700  0.08790  1.0000
  O   O3        1.0  0.93400  0.58700  0.26200  1.0000
  O   O4        1.0  0.06050  0.16700  0.36400  1.0000
  O   O5        1.0  0.58100  0.24500  0.44300  1.0000
  O   O6        1.0  0.41900  0.75500  0.55700  1.0000
  O   O7        1.0  0.93900  0.83300  0.63600  1.0000
  O   O8        1.0  0.06630  0.41300  0.73800  1.0000
  O   O9        1.0  0.67600  0.63300  0.91200  1.0000
  O   O10       1.0  0.72700  0.14800  0.92600  1.0000
  Pr  Pr1       1.0  0.65000  0.81100  0.28000  1.0000
  Pr  Pr2       1.0  0.35000  0.18900  0.72000  1.0000
