data_image0
_chemical_formula_structural       Cu12N4Pd
_chemical_formula_sum              "Cu12 N4 Pd1"
_cell_length_a       3.92213
_cell_length_b       7.4925
_cell_length_c       7.4925
_cell_angle_alpha    90
_cell_angle_beta     90
_cell_angle_gamma    90

_space_group_name_H-M_alt    "P 1"
_space_group_IT_number       1

loop_
  _space_group_symop_operation_xyz
  'x, y, z'

loop_
  _atom_site_type_symbol
  _atom_site_label
  _atom_site_symmetry_multiplicity
  _atom_site_fract_x
  _atom_site_fract_y
  _atom_site_fract_z
  _atom_site_occupancy
  Cu  Cu1       1.0  0.00000  0.24900  0.00000  1.0000
  Cu  Cu2       1.0  0.00000  0.75100  0.00000  1.0000
  Cu  Cu3       1.0  0.00000  0.50000  0.24300  1.0000
  Cu  Cu4       1.0  0.00000  0.00000  0.24900  1.0000
  Cu  Cu5       1.0  0.50000  0.24900  0.24900  1.0000
  Cu  Cu6       1.0  0.50000  0.75100  0.24900  1.0000
  Cu  Cu7       1.0  0.00000  0.24300  0.50000  1.0000
  Cu  Cu8       1.0  0.00000  0.75700  0.50000  1.0000
  Cu  Cu9       1.0  0.50000  0.24900  0.75100  1.0000
  Cu  Cu10      1.0  0.50000  0.75100  0.75100  1.0000
  Cu  Cu11      1.0  0.00000  0.00000  0.75100  1.0000
  Cu  Cu12      1.0  0.00000  0.50000  0.75700  1.0000
  N   N1        1.0  0.00000  0.00000  0.00000  1.0000
  N   N2        1.0  0.00000  0.50000  0.00000  1.0000
  N   N3        1.0  0.00000  0.00000  0.50000  1.0000
  N   N4        1.0  0.00000  0.50000  0.50000  1.0000
  Pd  Pd1       1.0  0.50000  0.50000  0.50000  1.0000
