data_image0
_chemical_formula_structural       Br2C6H20N2
_chemical_formula_sum              "Br2 C6 H20 N2"
_cell_length_a       5.30792
_cell_length_b       7.92781
_cell_length_c       6.72723
_cell_angle_alpha    90
_cell_angle_beta     106.18
_cell_angle_gamma    90

_space_group_name_H-M_alt    "P 1"
_space_group_IT_number       1

loop_
  _space_group_symop_operation_xyz
  'x, y, z'

loop_
  _atom_site_type_symbol
  _atom_site_label
  _atom_site_symmetry_multiplicity
  _atom_site_fract_x
  _atom_site_fract_y
  _atom_site_fract_z
  _atom_site_occupancy
  Br  Br1       1.0  0.05110  0.75000  0.20200  1.0000
  Br  Br2       1.0  0.94900  0.25000  0.79800  1.0000
  C   C1        1.0  0.59400  0.09520  0.24000  1.0000
  C   C2        1.0  0.59400  0.40500  0.24000  1.0000
  C   C3        1.0  0.27200  0.25000  0.36900  1.0000
  C   C4        1.0  0.72800  0.75000  0.63100  1.0000
  C   C5        1.0  0.40600  0.59500  0.76000  1.0000
  C   C6        1.0  0.40600  0.90500  0.76000  1.0000
  H   H1        1.0  0.29300  0.25000  0.06870  1.0000
  H   H2        1.0  0.70200  0.09810  0.12300  1.0000
  H   H3        1.0  0.70200  0.40200  0.12300  1.0000
  H   H4        1.0  0.46500  0.51600  0.21900  1.0000
  H   H5        1.0  0.46500  0.98400  0.21900  1.0000
  H   H6        1.0  0.15000  0.13600  0.34300  1.0000
  H   H7        1.0  0.15000  0.36400  0.34300  1.0000
  H   H8        1.0  0.73200  0.09570  0.39500  1.0000
  H   H9        1.0  0.73200  0.40400  0.39500  1.0000
  H   H10       1.0  0.59500  0.75000  0.47400  1.0000
  H   H11       1.0  0.40500  0.25000  0.52600  1.0000
  H   H12       1.0  0.26800  0.59600  0.60500  1.0000
  H   H13       1.0  0.26800  0.90400  0.60500  1.0000
  H   H14       1.0  0.85000  0.63600  0.65700  1.0000
  H   H15       1.0  0.85000  0.86400  0.65700  1.0000
  H   H16       1.0  0.53500  0.01560  0.78100  1.0000
  H   H17       1.0  0.53500  0.48400  0.78100  1.0000
  H   H18       1.0  0.29800  0.59800  0.87700  1.0000
  H   H19       1.0  0.29800  0.90200  0.87700  1.0000
  H   H20       1.0  0.70700  0.75000  0.93100  1.0000
  N   N1        1.0  0.43000  0.25000  0.21800  1.0000
  N   N2        1.0  0.57000  0.75000  0.78200  1.0000
