data_image0
_chemical_formula_structural       C2H8In2O14Se2
_chemical_formula_sum              "C2 H8 In2 O14 Se2"
_cell_length_a       5.10856
_cell_length_b       6.56147
_cell_length_c       9.4207
_cell_angle_alpha    102.885
_cell_angle_beta     102.526
_cell_angle_gamma    104.672

_space_group_name_H-M_alt    "P 1"
_space_group_IT_number       1

loop_
  _space_group_symop_operation_xyz
  'x, y, z'

loop_
  _atom_site_type_symbol
  _atom_site_label
  _atom_site_symmetry_multiplicity
  _atom_site_fract_x
  _atom_site_fract_y
  _atom_site_fract_z
  _atom_site_occupancy
  C   C1        1.0  0.14700  0.08500  0.01810  1.0000
  C   C2        1.0  0.85300  0.91500  0.98200  1.0000
  H   H1        1.0  0.60100  0.30900  0.00429  1.0000
  H   H2        1.0  0.86800  0.53000  0.08420  1.0000
  H   H3        1.0  0.86300  0.32800  0.23000  1.0000
  H   H4        1.0  0.80300  0.30800  0.39300  1.0000
  H   H5        1.0  0.19700  0.69200  0.60700  1.0000
  H   H6        1.0  0.13700  0.67200  0.77000  1.0000
  H   H7        1.0  0.13200  0.47000  0.91600  1.0000
  H   H8        1.0  0.39900  0.69100  0.99600  1.0000
  In  In1       1.0  0.11600  0.04060  0.33000  1.0000
  In  In2       1.0  0.88400  0.95900  0.67000  1.0000
  O   O1        1.0  0.79600  0.37200  0.07260  1.0000
  O   O2        1.0  0.77700  0.86100  0.09210  1.0000
  O   O3        1.0  0.29700  0.16100  0.15500  1.0000
  O   O4        1.0  0.24600  0.76200  0.25700  1.0000
  O   O5        1.0  0.95000  0.31500  0.33500  1.0000
  O   O6        1.0  0.79900  0.84200  0.40900  1.0000
  O   O7        1.0  0.55300  0.27400  0.46000  1.0000
  O   O8        1.0  0.44700  0.72600  0.54000  1.0000
  O   O9        1.0  0.20100  0.15800  0.59100  1.0000
  O   O10       1.0  0.04960  0.68500  0.66500  1.0000
  O   O11       1.0  0.75400  0.23800  0.74300  1.0000
  O   O12       1.0  0.70300  0.83900  0.84500  1.0000
  O   O13       1.0  0.22300  0.13900  0.90800  1.0000
  O   O14       1.0  0.20400  0.62800  0.92700  1.0000
  Se  Se1       1.0  0.46100  0.64800  0.35400  1.0000
  Se  Se2       1.0  0.53900  0.35200  0.64600  1.0000
