data_image0
_chemical_formula_structural       Na2O10Sm2Ti3
_chemical_formula_sum              "Na2 O10 Sm2 Ti3"
_cell_length_a       3.8117
_cell_length_b       3.8117
_cell_length_c       14.37
_cell_angle_alpha    97.6214
_cell_angle_beta     97.6214
_cell_angle_gamma    90

_space_group_name_H-M_alt    "P 1"
_space_group_IT_number       1

loop_
  _space_group_symop_operation_xyz
  'x, y, z'

loop_
  _atom_site_type_symbol
  _atom_site_label
  _atom_site_symmetry_multiplicity
  _atom_site_fract_x
  _atom_site_fract_y
  _atom_site_fract_z
  _atom_site_occupancy
  Na  Na1       1.0  0.71100  0.71100  0.42200  1.0000
  Na  Na2       1.0  0.28900  0.28900  0.57800  1.0000
  O   O1        1.0  0.50000  0.00000  0.00000  1.0000
  O   O2        1.0  0.00000  0.50000  0.00000  1.0000
  O   O3        1.0  0.06820  0.06820  0.13600  1.0000
  O   O4        1.0  0.63100  0.13100  0.26200  1.0000
  O   O5        1.0  0.13100  0.63100  0.26200  1.0000
  O   O6        1.0  0.21000  0.21000  0.41900  1.0000
  O   O7        1.0  0.79000  0.79000  0.58100  1.0000
  O   O8        1.0  0.86900  0.36900  0.73800  1.0000
  O   O9        1.0  0.36900  0.86900  0.73800  1.0000
  O   O10       1.0  0.93200  0.93200  0.86400  1.0000
  Sm  Sm1       1.0  0.57500  0.57500  0.15100  1.0000
  Sm  Sm2       1.0  0.42500  0.42500  0.84900  1.0000
  Ti  Ti1       1.0  0.00000  0.00000  0.00000  1.0000
  Ti  Ti2       1.0  0.14700  0.14700  0.29300  1.0000
  Ti  Ti3       1.0  0.85300  0.85300  0.70700  1.0000
