data_image0
_chemical_formula_structural       Dy4Ge6Rh7
_chemical_formula_sum              "Dy4 Ge6 Rh7"
_cell_length_a       7.27527
_cell_length_b       7.27527
_cell_length_c       7.27527
_cell_angle_alpha    109.471
_cell_angle_beta     109.471
_cell_angle_gamma    109.471

_space_group_name_H-M_alt    "P 1"
_space_group_IT_number       1

loop_
  _space_group_symop_operation_xyz
  'x, y, z'

loop_
  _atom_site_type_symbol
  _atom_site_label
  _atom_site_symmetry_multiplicity
  _atom_site_fract_x
  _atom_site_fract_y
  _atom_site_fract_z
  _atom_site_occupancy
  Dy  Dy1       1.0  0.50000  0.00000  0.00000  1.0000
  Dy  Dy2       1.0  0.00000  0.50000  0.00000  1.0000
  Dy  Dy3       1.0  0.00000  0.00000  0.50000  1.0000
  Dy  Dy4       1.0  0.50000  0.50000  0.50000  1.0000
  Ge  Ge1       1.0  0.32100  0.32100  0.00000  1.0000
  Ge  Ge2       1.0  0.67900  0.67900  0.00000  1.0000
  Ge  Ge3       1.0  0.32100  0.00000  0.32100  1.0000
  Ge  Ge4       1.0  0.00000  0.32100  0.32100  1.0000
  Ge  Ge5       1.0  0.67900  0.00000  0.67900  1.0000
  Ge  Ge6       1.0  0.00000  0.67900  0.67900  1.0000
  Rh  Rh1       1.0  0.00000  0.00000  0.00000  1.0000
  Rh  Rh2       1.0  0.75000  0.50000  0.25000  1.0000
  Rh  Rh3       1.0  0.50000  0.75000  0.25000  1.0000
  Rh  Rh4       1.0  0.75000  0.25000  0.50000  1.0000
  Rh  Rh5       1.0  0.25000  0.75000  0.50000  1.0000
  Rh  Rh6       1.0  0.50000  0.25000  0.75000  1.0000
  Rh  Rh7       1.0  0.25000  0.50000  0.75000  1.0000
