data_image0
_chemical_formula_structural       O12Sb4Zn2
_chemical_formula_sum              "O12 Sb4 Zn2"
_cell_length_a       4.68109
_cell_length_b       4.68109
_cell_length_c       9.35511
_cell_angle_alpha    90
_cell_angle_beta     90
_cell_angle_gamma    90

_space_group_name_H-M_alt    "P 1"
_space_group_IT_number       1

loop_
  _space_group_symop_operation_xyz
  'x, y, z'

loop_
  _atom_site_type_symbol
  _atom_site_label
  _atom_site_symmetry_multiplicity
  _atom_site_fract_x
  _atom_site_fract_y
  _atom_site_fract_z
  _atom_site_occupancy
  O   O1        1.0  0.31000  0.31000  0.00000  1.0000
  O   O2        1.0  0.69000  0.69000  0.00000  1.0000
  O   O3        1.0  0.80100  0.19900  0.17200  1.0000
  O   O4        1.0  0.19900  0.80100  0.17200  1.0000
  O   O5        1.0  0.30100  0.30100  0.32800  1.0000
  O   O6        1.0  0.69900  0.69900  0.32800  1.0000
  O   O7        1.0  0.81000  0.19000  0.50000  1.0000
  O   O8        1.0  0.19000  0.81000  0.50000  1.0000
  O   O9        1.0  0.30100  0.30100  0.67200  1.0000
  O   O10       1.0  0.69900  0.69900  0.67200  1.0000
  O   O11       1.0  0.80100  0.19900  0.82800  1.0000
  O   O12       1.0  0.19900  0.80100  0.82800  1.0000
  Sb  Sb1       1.0  0.50000  0.50000  0.16800  1.0000
  Sb  Sb2       1.0  0.00000  0.00000  0.33200  1.0000
  Sb  Sb3       1.0  0.00000  0.00000  0.66800  1.0000
  Sb  Sb4       1.0  0.50000  0.50000  0.83200  1.0000
  Zn  Zn1       1.0  0.00000  0.00000  0.00000  1.0000
  Zn  Zn2       1.0  0.50000  0.50000  0.50000  1.0000
