data_image0
_chemical_formula_structural       C8H4K4N8O4Pt2
_chemical_formula_sum              "C8 H4 K4 N8 O4 Pt2"
_cell_length_a       6.38172
_cell_length_b       8.67629
_cell_length_c       8.67629
_cell_angle_alpha    79.6522
_cell_angle_beta     101.9
_cell_angle_gamma    101.9

_space_group_name_H-M_alt    "P 1"
_space_group_IT_number       1

loop_
  _space_group_symop_operation_xyz
  'x, y, z'

loop_
  _atom_site_type_symbol
  _atom_site_label
  _atom_site_symmetry_multiplicity
  _atom_site_fract_x
  _atom_site_fract_y
  _atom_site_fract_z
  _atom_site_occupancy
  C   C1        1.0  0.97900  0.61000  0.27800  1.0000
  C   C2        1.0  0.42700  0.42100  0.29200  1.0000
  C   C3        1.0  0.52100  0.72200  0.39000  1.0000
  C   C4        1.0  0.92700  0.29200  0.42100  1.0000
  C   C5        1.0  0.07290  0.70800  0.57900  1.0000
  C   C6        1.0  0.47900  0.27800  0.61000  1.0000
  C   C7        1.0  0.57300  0.57900  0.70800  1.0000
  C   C8        1.0  0.02120  0.39000  0.72200  1.0000
  H   H1        1.0  0.79800  0.80800  0.03510  1.0000
  H   H2        1.0  0.70200  0.96500  0.19200  1.0000
  H   H3        1.0  0.29800  0.03510  0.80800  1.0000
  H   H4        1.0  0.20200  0.19200  0.96500  1.0000
  K   K1        1.0  0.70700  0.31400  0.02560  1.0000
  K   K2        1.0  0.20700  0.02560  0.31400  1.0000
  K   K3        1.0  0.79300  0.97400  0.68600  1.0000
  K   K4        1.0  0.29300  0.68600  0.97400  1.0000
  N   N1        1.0  0.96700  0.67700  0.14700  1.0000
  N   N2        1.0  0.38500  0.37400  0.16800  1.0000
  N   N3        1.0  0.53300  0.85300  0.32300  1.0000
  N   N4        1.0  0.88500  0.16800  0.37400  1.0000
  N   N5        1.0  0.11500  0.83200  0.62600  1.0000
  N   N6        1.0  0.46700  0.14700  0.67700  1.0000
  N   N7        1.0  0.61500  0.62600  0.83200  1.0000
  N   N8        1.0  0.03280  0.32300  0.85300  1.0000
  O   O1        1.0  0.29500  0.10700  0.00602  1.0000
  O   O2        1.0  0.79500  0.00602  0.10700  1.0000
  O   O3        1.0  0.20500  0.99400  0.89300  1.0000
  O   O4        1.0  0.70500  0.89300  0.99400  1.0000
  Pt  Pt1       1.0  0.00000  0.50000  0.50000  1.0000
  Pt  Pt2       1.0  0.50000  0.50000  0.50000  1.0000
