data_image0
_chemical_formula_structural       Ba2O10Pd2Y4
_chemical_formula_sum              "Ba2 O10 Pd2 Y4"
_cell_length_a       6.52621
_cell_length_b       6.52621
_cell_length_c       5.88257
_cell_angle_alpha    90
_cell_angle_beta     90
_cell_angle_gamma    90

_space_group_name_H-M_alt    "P 1"
_space_group_IT_number       1

loop_
  _space_group_symop_operation_xyz
  'x, y, z'

loop_
  _atom_site_type_symbol
  _atom_site_label
  _atom_site_symmetry_multiplicity
  _atom_site_fract_x
  _atom_site_fract_y
  _atom_site_fract_z
  _atom_site_occupancy
  Ba  Ba1       1.0  0.00000  0.00000  0.00000  1.0000
  Ba  Ba2       1.0  0.50000  0.50000  0.00000  1.0000
  O   O1        1.0  0.35800  0.14200  0.25900  1.0000
  O   O2        1.0  0.85800  0.35800  0.25900  1.0000
  O   O3        1.0  0.14200  0.64200  0.25900  1.0000
  O   O4        1.0  0.64200  0.85800  0.25900  1.0000
  O   O5        1.0  0.00000  0.00000  0.50000  1.0000
  O   O6        1.0  0.50000  0.50000  0.50000  1.0000
  O   O7        1.0  0.35800  0.14200  0.74100  1.0000
  O   O8        1.0  0.85800  0.35800  0.74100  1.0000
  O   O9        1.0  0.14200  0.64200  0.74100  1.0000
  O   O10       1.0  0.64200  0.85800  0.74100  1.0000
  Pd  Pd1       1.0  0.50000  0.00000  0.00000  1.0000
  Pd  Pd2       1.0  0.00000  0.50000  0.00000  1.0000
  Y   Y1        1.0  0.67300  0.17300  0.50000  1.0000
  Y   Y2        1.0  0.17300  0.32700  0.50000  1.0000
  Y   Y3        1.0  0.82700  0.67300  0.50000  1.0000
  Y   Y4        1.0  0.32700  0.82700  0.50000  1.0000
