data_image0
_chemical_formula_structural       Ag6Ni4O8
_chemical_formula_sum              "Ag6 Ni4 O8"
_cell_length_a       2.9576
_cell_length_b       2.95759
_cell_length_c       27.9977
_cell_angle_alpha    90
_cell_angle_beta     90
_cell_angle_gamma    120

_space_group_name_H-M_alt    "P 1"
_space_group_IT_number       1

loop_
  _space_group_symop_operation_xyz
  'x, y, z'

loop_
  _atom_site_type_symbol
  _atom_site_label
  _atom_site_symmetry_multiplicity
  _atom_site_fract_x
  _atom_site_fract_y
  _atom_site_fract_z
  _atom_site_occupancy
  Ag  Ag1       1.0  0.33300  0.66700  0.04070  1.0000
  Ag  Ag2       1.0  0.33300  0.66700  0.25000  1.0000
  Ag  Ag3       1.0  0.33300  0.66700  0.45900  1.0000
  Ag  Ag4       1.0  0.66700  0.33300  0.54100  1.0000
  Ag  Ag5       1.0  0.66700  0.33300  0.75000  1.0000
  Ag  Ag6       1.0  0.66700  0.33300  0.95900  1.0000
  Ni  Ni1       1.0  0.66700  0.33300  0.14100  1.0000
  Ni  Ni2       1.0  0.66700  0.33300  0.35900  1.0000
  Ni  Ni3       1.0  0.33300  0.66700  0.64100  1.0000
  Ni  Ni4       1.0  0.33300  0.66700  0.85900  1.0000
  O   O1        1.0  0.00000  0.00000  0.10200  1.0000
  O   O2        1.0  0.33300  0.66700  0.17700  1.0000
  O   O3        1.0  0.33300  0.66700  0.32300  1.0000
  O   O4        1.0  0.00000  0.00000  0.39800  1.0000
  O   O5        1.0  0.00000  0.00000  0.60200  1.0000
  O   O6        1.0  0.66700  0.33300  0.67700  1.0000
  O   O7        1.0  0.66700  0.33300  0.82300  1.0000
  O   O8        1.0  0.00000  0.00000  0.89800  1.0000
