data_image0
_chemical_formula_structural       Sb10Sc2U6
_chemical_formula_sum              "Sb10 Sc2 U6"
_cell_length_a       9.21915
_cell_length_b       9.21915
_cell_length_c       6.21396
_cell_angle_alpha    90
_cell_angle_beta     90
_cell_angle_gamma    120.001

_space_group_name_H-M_alt    "P 1"
_space_group_IT_number       1

loop_
  _space_group_symop_operation_xyz
  'x, y, z'

loop_
  _atom_site_type_symbol
  _atom_site_label
  _atom_site_symmetry_multiplicity
  _atom_site_fract_x
  _atom_site_fract_y
  _atom_site_fract_z
  _atom_site_occupancy
  Sb  Sb1       1.0  0.66700  0.33300  0.00000  1.0000
  Sb  Sb2       1.0  0.33300  0.66700  0.00000  1.0000
  Sb  Sb3       1.0  0.73100  0.73100  0.25000  1.0000
  Sb  Sb4       1.0  0.26900  0.00001  0.25000  1.0000
  Sb  Sb5       1.0  0.00001  0.26900  0.25000  1.0000
  Sb  Sb6       1.0  0.66700  0.33300  0.50000  1.0000
  Sb  Sb7       1.0  0.33300  0.66700  0.50000  1.0000
  Sb  Sb8       1.0  0.26900  0.26900  0.75000  1.0000
  Sb  Sb9       1.0  0.73100  0.00000  0.75000  1.0000
  Sb  Sb10      1.0  0.00000  0.73100  0.75000  1.0000
  Sc  Sc1       1.0  0.00000  0.00000  0.00000  1.0000
  Sc  Sc2       1.0  0.00000  0.00000  0.50000  1.0000
  U   U1        1.0  0.61300  0.00002  0.25000  1.0000
  U   U2        1.0  0.00002  0.61300  0.25000  1.0000
  U   U3        1.0  0.38700  0.38700  0.25000  1.0000
  U   U4        1.0  0.38700  0.00000  0.75000  1.0000
  U   U5        1.0  0.00000  0.38700  0.75000  1.0000
  U   U6        1.0  0.61300  0.61300  0.75000  1.0000
