data_image0
_chemical_formula_structural       B2Er3Ni13
_chemical_formula_sum              "B2 Er3 Ni13"
_cell_length_a       4.91977
_cell_length_b       4.91977
_cell_length_c       10.9124
_cell_angle_alpha    90.0001
_cell_angle_beta     90.0001
_cell_angle_gamma    120.023

_space_group_name_H-M_alt    "P 1"
_space_group_IT_number       1

loop_
  _space_group_symop_operation_xyz
  'x, y, z'

loop_
  _atom_site_type_symbol
  _atom_site_label
  _atom_site_symmetry_multiplicity
  _atom_site_fract_x
  _atom_site_fract_y
  _atom_site_fract_z
  _atom_site_occupancy
  B   B1        1.0  0.33300  0.66700  0.00001  1.0000
  B   B2        1.0  0.66700  0.33300  0.00001  1.0000
  Er  Er1       1.0  0.00001  0.00001  1.00000  1.0000
  Er  Er2       1.0  0.00000  0.00000  0.32700  1.0000
  Er  Er3       1.0  0.00002  0.00002  0.67300  1.0000
  Ni  Ni1       1.0  0.50000  0.50000  0.13300  1.0000
  Ni  Ni2       1.0  0.00001  0.50000  0.13300  1.0000
  Ni  Ni3       1.0  0.50000  0.00001  0.13300  1.0000
  Ni  Ni4       1.0  0.33300  0.66700  0.31900  1.0000
  Ni  Ni5       1.0  0.66700  0.33300  0.31900  1.0000
  Ni  Ni6       1.0  0.50000  1.00000  0.50000  1.0000
  Ni  Ni7       1.0  0.00000  0.50000  0.50000  1.0000
  Ni  Ni8       1.0  0.50000  0.50000  0.50000  1.0000
  Ni  Ni9       1.0  0.66700  0.33300  0.68100  1.0000
  Ni  Ni10      1.0  0.33300  0.66700  0.68100  1.0000
  Ni  Ni11      1.0  0.50000  0.00001  0.86700  1.0000
  Ni  Ni12      1.0  0.00002  0.50000  0.86700  1.0000
  Ni  Ni13      1.0  0.50000  0.50000  0.86700  1.0000
