data_image0
_chemical_formula_structural       Ni2O12Sb4
_chemical_formula_sum              "Ni2 O12 Sb4"
_cell_length_a       4.6524
_cell_length_b       4.6524
_cell_length_c       9.28382
_cell_angle_alpha    90
_cell_angle_beta     90
_cell_angle_gamma    90

_space_group_name_H-M_alt    "P 1"
_space_group_IT_number       1

loop_
  _space_group_symop_operation_xyz
  'x, y, z'

loop_
  _atom_site_type_symbol
  _atom_site_label
  _atom_site_symmetry_multiplicity
  _atom_site_fract_x
  _atom_site_fract_y
  _atom_site_fract_z
  _atom_site_occupancy
  Ni  Ni1       1.0  0.00000  0.00000  0.00000  1.0000
  Ni  Ni2       1.0  0.50000  0.50000  0.50000  1.0000
  O   O1        1.0  0.30700  0.30700  0.00000  1.0000
  O   O2        1.0  0.69300  0.69300  0.00000  1.0000
  O   O3        1.0  0.80300  0.19700  0.17000  1.0000
  O   O4        1.0  0.19700  0.80300  0.17000  1.0000
  O   O5        1.0  0.30300  0.30300  0.33000  1.0000
  O   O6        1.0  0.69700  0.69700  0.33000  1.0000
  O   O7        1.0  0.80700  0.19300  0.50000  1.0000
  O   O8        1.0  0.19300  0.80700  0.50000  1.0000
  O   O9        1.0  0.30300  0.30300  0.67000  1.0000
  O   O10       1.0  0.69700  0.69700  0.67000  1.0000
  O   O11       1.0  0.80300  0.19700  0.83000  1.0000
  O   O12       1.0  0.19700  0.80300  0.83000  1.0000
  Sb  Sb1       1.0  0.50000  0.50000  0.16700  1.0000
  Sb  Sb2       1.0  0.00000  0.00000  0.33300  1.0000
  Sb  Sb3       1.0  0.00000  0.00000  0.66700  1.0000
  Sb  Sb4       1.0  0.50000  0.50000  0.83300  1.0000
