data_image0
_chemical_formula_structural       Mn4O10Sr4
_chemical_formula_sum              "Mn4 O10 Sr4"
_cell_length_a       3.82486
_cell_length_b       5.52675
_cell_length_c       10.8078
_cell_angle_alpha    90
_cell_angle_beta     90
_cell_angle_gamma    90

_space_group_name_H-M_alt    "P 1"
_space_group_IT_number       1

loop_
  _space_group_symop_operation_xyz
  'x, y, z'

loop_
  _atom_site_type_symbol
  _atom_site_label
  _atom_site_symmetry_multiplicity
  _atom_site_fract_x
  _atom_site_fract_y
  _atom_site_fract_z
  _atom_site_occupancy
  Mn  Mn1       1.0  0.00000  0.26400  0.12200  1.0000
  Mn  Mn2       1.0  0.00000  0.76400  0.37800  1.0000
  Mn  Mn3       1.0  0.00000  0.23600  0.62200  1.0000
  Mn  Mn4       1.0  0.00000  0.73600  0.87800  1.0000
  O   O1        1.0  0.00000  0.00000  0.00000  1.0000
  O   O2        1.0  0.50000  0.30000  0.09920  1.0000
  O   O3        1.0  0.00000  0.53700  0.22900  1.0000
  O   O4        1.0  0.00000  0.03720  0.27100  1.0000
  O   O5        1.0  0.50000  0.80000  0.40100  1.0000
  O   O6        1.0  0.00000  0.50000  0.50000  1.0000
  O   O7        1.0  0.50000  0.20000  0.59900  1.0000
  O   O8        1.0  0.00000  0.96300  0.72900  1.0000
  O   O9        1.0  0.00000  0.46300  0.77100  1.0000
  O   O10       1.0  0.50000  0.70000  0.90100  1.0000
  Sr  Sr1       1.0  0.50000  0.79100  0.13500  1.0000
  Sr  Sr2       1.0  0.50000  0.29100  0.36500  1.0000
  Sr  Sr3       1.0  0.50000  0.70900  0.63500  1.0000
  Sr  Sr4       1.0  0.50000  0.20900  0.86500  1.0000
