data_image0
_chemical_formula_structural       Pr2Zn17
_chemical_formula_sum              "Pr2 Zn17"
_cell_length_a       6.83138
_cell_length_b       6.83138
_cell_length_c       6.83138
_cell_angle_alpha    82.8862
_cell_angle_beta     97.1138
_cell_angle_gamma    97.1138

_space_group_name_H-M_alt    "P 1"
_space_group_IT_number       1

loop_
  _space_group_symop_operation_xyz
  'x, y, z'

loop_
  _atom_site_type_symbol
  _atom_site_label
  _atom_site_symmetry_multiplicity
  _atom_site_fract_x
  _atom_site_fract_y
  _atom_site_fract_z
  _atom_site_occupancy
  Pr  Pr1       1.0  0.66400  0.33600  0.33600  1.0000
  Pr  Pr2       1.0  0.33600  0.66400  0.66400  1.0000
  Zn  Zn1       1.0  0.00000  0.50000  1.00000  1.0000
  Zn  Zn2       1.0  0.50000  0.00000  0.00000  1.0000
  Zn  Zn3       1.0  0.70700  0.70700  0.00000  1.0000
  Zn  Zn4       1.0  0.29300  0.29300  0.00000  1.0000
  Zn  Zn5       1.0  0.90100  0.09880  0.09880  1.0000
  Zn  Zn6       1.0  0.35000  0.65000  0.16100  1.0000
  Zn  Zn7       1.0  0.29300  0.00000  0.29300  1.0000
  Zn  Zn8       1.0  0.00000  0.70700  0.29300  1.0000
  Zn  Zn9       1.0  0.65000  0.83900  0.35000  1.0000
  Zn  Zn10      1.0  0.16100  0.35000  0.35000  1.0000
  Zn  Zn11      1.0  0.00000  0.00000  0.50000  1.0000
  Zn  Zn12      1.0  0.35000  0.16100  0.65000  1.0000
  Zn  Zn13      1.0  0.83900  0.65000  0.65000  1.0000
  Zn  Zn14      1.0  0.00000  0.29300  0.70700  1.0000
  Zn  Zn15      1.0  0.70700  0.00000  0.70700  1.0000
  Zn  Zn16      1.0  0.65000  0.35000  0.83900  1.0000
  Zn  Zn17      1.0  0.09880  0.90100  0.90100  1.0000
