data_image0
_chemical_formula_structural       Mn2P2Sr
_chemical_formula_sum              "Mn2 P2 Sr1"
_cell_length_a       3.83795
_cell_length_b       3.83796
_cell_length_c       7.08944
_cell_angle_alpha    90
_cell_angle_beta     90.0001
_cell_angle_gamma    120

_space_group_name_H-M_alt    "P 1"
_space_group_IT_number       1

loop_
  _space_group_symop_operation_xyz
  'x, y, z'

loop_
  _atom_site_type_symbol
  _atom_site_label
  _atom_site_symmetry_multiplicity
  _atom_site_fract_x
  _atom_site_fract_y
  _atom_site_fract_z
  _atom_site_occupancy
  Mn  Mn1       1.0  0.66700  0.33300  0.38800  1.0000
  Mn  Mn2       1.0  0.33300  0.66700  0.61200  1.0000
  P   P1        1.0  0.33300  0.66700  0.29400  1.0000
  P   P2        1.0  0.66700  0.33300  0.70600  1.0000
  Sr  Sr1       1.0  0.00000  0.00000  0.00000  1.0000
