data_image0
_chemical_formula_structural       Ge6N8
_chemical_formula_sum              "Ge6 N8"
_cell_length_a       8.05674
_cell_length_b       8.05681
_cell_length_c       3.08702
_cell_angle_alpha    90
_cell_angle_beta     90
_cell_angle_gamma    120.002

_space_group_name_H-M_alt    "P 1"
_space_group_IT_number       1

loop_
  _space_group_symop_operation_xyz
  'x, y, z'

loop_
  _atom_site_type_symbol
  _atom_site_label
  _atom_site_symmetry_multiplicity
  _atom_site_fract_x
  _atom_site_fract_y
  _atom_site_fract_z
  _atom_site_occupancy
  Ge  Ge1       1.0  0.23500  0.40600  0.25000  1.0000
  Ge  Ge2       1.0  0.17100  0.76500  0.25000  1.0000
  Ge  Ge3       1.0  0.59400  0.82900  0.25000  1.0000
  Ge  Ge4       1.0  0.40600  0.17100  0.75000  1.0000
  Ge  Ge5       1.0  0.82900  0.23500  0.75000  1.0000
  Ge  Ge6       1.0  0.76500  0.59400  0.75000  1.0000
  N   N1        1.0  0.33100  0.02770  0.25000  1.0000
  N   N2        1.0  0.97200  0.30300  0.25000  1.0000
  N   N3        1.0  0.33300  0.66700  0.25000  1.0000
  N   N4        1.0  0.69700  0.66900  0.25000  1.0000
  N   N5        1.0  0.30300  0.33100  0.75000  1.0000
  N   N6        1.0  0.66700  0.33300  0.75000  1.0000
  N   N7        1.0  0.02770  0.69700  0.75000  1.0000
  N   N8        1.0  0.66900  0.97200  0.75000  1.0000
