data_image0
_chemical_formula_structural       Fe4Ga12
_chemical_formula_sum              "Fe4 Ga12"
_cell_length_a       6.25363
_cell_length_b       6.25363
_cell_length_c       6.54341
_cell_angle_alpha    90
_cell_angle_beta     90
_cell_angle_gamma    90

_space_group_name_H-M_alt    "P 1"
_space_group_IT_number       1

loop_
  _space_group_symop_operation_xyz
  'x, y, z'

loop_
  _atom_site_type_symbol
  _atom_site_label
  _atom_site_symmetry_multiplicity
  _atom_site_fract_x
  _atom_site_fract_y
  _atom_site_fract_z
  _atom_site_occupancy
  Fe  Fe1       1.0  0.34400  0.34400  0.00000  1.0000
  Fe  Fe2       1.0  0.65600  0.65600  0.00000  1.0000
  Fe  Fe3       1.0  0.84400  0.15600  0.50000  1.0000
  Fe  Fe4       1.0  0.15600  0.84400  0.50000  1.0000
  Ga  Ga1       1.0  0.50000  0.00000  0.00000  1.0000
  Ga  Ga2       1.0  0.00000  0.50000  0.00000  1.0000
  Ga  Ga3       1.0  0.65600  0.34400  0.23700  1.0000
  Ga  Ga4       1.0  0.34400  0.65600  0.23700  1.0000
  Ga  Ga5       1.0  0.15600  0.15600  0.26300  1.0000
  Ga  Ga6       1.0  0.84400  0.84400  0.26300  1.0000
  Ga  Ga7       1.0  0.50000  0.00000  0.50000  1.0000
  Ga  Ga8       1.0  0.00000  0.50000  0.50000  1.0000
  Ga  Ga9       1.0  0.15600  0.15600  0.73700  1.0000
  Ga  Ga10      1.0  0.84400  0.84400  0.73700  1.0000
  Ga  Ga11      1.0  0.65600  0.34400  0.76300  1.0000
  Ga  Ga12      1.0  0.34400  0.65600  0.76300  1.0000
