data_image0
_chemical_formula_structural       K2N6
_chemical_formula_sum              "K2 N6"
_cell_length_a       6.3465
_cell_length_b       6.3465
_cell_length_c       6.3465
_cell_angle_alpha    88.6829
_cell_angle_beta     120.763
_cell_angle_gamma    120.763

_space_group_name_H-M_alt    "P 1"
_space_group_IT_number       1

loop_
  _space_group_symop_operation_xyz
  'x, y, z'

loop_
  _atom_site_type_symbol
  _atom_site_label
  _atom_site_symmetry_multiplicity
  _atom_site_fract_x
  _atom_site_fract_y
  _atom_site_fract_z
  _atom_site_occupancy
  K   K1        1.0  0.00000  0.00000  0.00000  1.0000
  K   K2        1.0  0.00000  0.50000  0.50000  1.0000
  N   N1        1.0  0.50000  0.43700  0.06300  1.0000
  N   N2        1.0  0.00000  0.25000  0.25000  1.0000
  N   N3        1.0  0.37400  0.93700  0.43700  1.0000
  N   N4        1.0  0.62600  0.06300  0.56300  1.0000
  N   N5        1.0  0.00000  0.75000  0.75000  1.0000
  N   N6        1.0  0.50000  0.56300  0.93700  1.0000
