data_image0
_chemical_formula_structural       Ga2Se4Zn
_chemical_formula_sum              "Ga2 Se4 Zn1"
_cell_length_a       5.61353
_cell_length_b       5.61353
_cell_length_c       6.78877
_cell_angle_alpha    114.421
_cell_angle_beta     114.421
_cell_angle_gamma    90

_space_group_name_H-M_alt    "P 1"
_space_group_IT_number       1

loop_
  _space_group_symop_operation_xyz
  'x, y, z'

loop_
  _atom_site_type_symbol
  _atom_site_label
  _atom_site_symmetry_multiplicity
  _atom_site_fract_x
  _atom_site_fract_y
  _atom_site_fract_z
  _atom_site_occupancy
  Ga  Ga1       1.0  0.50000  0.50000  0.00000  1.0000
  Ga  Ga2       1.0  0.25000  0.75000  0.50000  1.0000
  Se  Se1       1.0  0.86700  0.37400  0.26700  1.0000
  Se  Se2       1.0  0.40000  0.89300  0.26700  1.0000
  Se  Se3       1.0  0.10700  0.13300  0.73300  1.0000
  Se  Se4       1.0  0.62600  0.60000  0.73300  1.0000
  Zn  Zn1       1.0  0.00000  0.00000  0.00000  1.0000
