data_image0
_chemical_formula_structural       KO2Y
_chemical_formula_sum              "K1 O2 Y1"
_cell_length_a       3.45692
_cell_length_b       3.45692
_cell_length_c       6.47997
_cell_angle_alpha    74.5297
_cell_angle_beta     105.47
_cell_angle_gamma    120

_space_group_name_H-M_alt    "P 1"
_space_group_IT_number       1

loop_
  _space_group_symop_operation_xyz
  'x, y, z'

loop_
  _atom_site_type_symbol
  _atom_site_label
  _atom_site_symmetry_multiplicity
  _atom_site_fract_x
  _atom_site_fract_y
  _atom_site_fract_z
  _atom_site_occupancy
  K   K1        1.0  0.00000  0.00000  0.00000  1.0000
  O   O1        1.0  0.77000  0.23000  0.31100  1.0000
  O   O2        1.0  0.23000  0.77000  0.68900  1.0000
  Y   Y1        1.0  0.50000  0.50000  0.50000  1.0000
