data_image0
_chemical_formula_structural       Cl2Cu4H6O6
_chemical_formula_sum              "Cl2 Cu4 H6 O6"
_cell_length_a       6.06197
_cell_length_b       6.06197
_cell_length_c       6.06197
_cell_angle_alpha    68.0906
_cell_angle_beta     111.909
_cell_angle_gamma    111.909

_space_group_name_H-M_alt    "P 1"
_space_group_IT_number       1

loop_
  _space_group_symop_operation_xyz
  'x, y, z'

loop_
  _atom_site_type_symbol
  _atom_site_label
  _atom_site_symmetry_multiplicity
  _atom_site_fract_x
  _atom_site_fract_y
  _atom_site_fract_z
  _atom_site_occupancy
  Cl  Cl1       1.0  0.81300  0.18700  0.18700  1.0000
  Cl  Cl2       1.0  0.18700  0.81300  0.81300  1.0000
  Cu  Cu1       1.0  0.50000  0.50000  0.00000  1.0000
  Cu  Cu2       1.0  0.00000  0.50000  0.50000  1.0000
  Cu  Cu3       1.0  0.50000  1.00000  0.50000  1.0000
  Cu  Cu4       1.0  0.50000  0.50000  0.50000  1.0000
  H   H1        1.0  0.22300  0.77700  0.16800  1.0000
  H   H2        1.0  0.16800  0.22300  0.22300  1.0000
  H   H3        1.0  0.77700  0.83200  0.22300  1.0000
  H   H4        1.0  0.83200  0.77700  0.77700  1.0000
  H   H5        1.0  0.22300  0.16800  0.77700  1.0000
  H   H6        1.0  0.77700  0.22300  0.83200  1.0000
  O   O1        1.0  0.35300  0.26700  0.26700  1.0000
  O   O2        1.0  0.73300  0.64700  0.26700  1.0000
  O   O3        1.0  0.26700  0.73300  0.35300  1.0000
  O   O4        1.0  0.73300  0.26700  0.64700  1.0000
  O   O5        1.0  0.64700  0.73300  0.73300  1.0000
  O   O6        1.0  0.26700  0.35300  0.73300  1.0000
