data_image0
_chemical_formula_structural       Fe2In4S8
_chemical_formula_sum              "Fe2 In4 S8"
_cell_length_a       7.53122
_cell_length_b       7.53122
_cell_length_c       7.53122
_cell_angle_alpha    120
_cell_angle_beta     90
_cell_angle_gamma    120

_space_group_name_H-M_alt    "P 1"
_space_group_IT_number       1

loop_
  _space_group_symop_operation_xyz
  'x, y, z'

loop_
  _atom_site_type_symbol
  _atom_site_label
  _atom_site_symmetry_multiplicity
  _atom_site_fract_x
  _atom_site_fract_y
  _atom_site_fract_z
  _atom_site_occupancy
  Fe  Fe1       1.0  0.00000  0.00000  0.00000  1.0000
  Fe  Fe2       1.0  0.75000  0.50000  0.25000  1.0000
  In  In1       1.0  0.37500  0.75000  0.12500  1.0000
  In  In2       1.0  0.37500  0.25000  0.62500  1.0000
  In  In3       1.0  0.37500  0.75000  0.62500  1.0000
  In  In4       1.0  0.87500  0.25000  0.62500  1.0000
  S   S1        1.0  0.62400  0.24700  0.37600  1.0000
  S   S2        1.0  0.12900  0.75300  0.37600  1.0000
  S   S3        1.0  0.62400  0.75300  0.37600  1.0000
  S   S4        1.0  0.12600  0.25300  0.37900  1.0000
  S   S5        1.0  0.62400  0.24700  0.87100  1.0000
  S   S6        1.0  0.12600  0.74700  0.87400  1.0000
  S   S7        1.0  0.62100  0.74700  0.87400  1.0000
  S   S8        1.0  0.12600  0.25300  0.87400  1.0000
