data_image0
_chemical_formula_structural       Nd10Sn6
_chemical_formula_sum              "Nd10 Sn6"
_cell_length_a       9.29054
_cell_length_b       9.29054
_cell_length_c       6.82575
_cell_angle_alpha    90
_cell_angle_beta     90
_cell_angle_gamma    120

_space_group_name_H-M_alt    "P 1"
_space_group_IT_number       1

loop_
  _space_group_symop_operation_xyz
  'x, y, z'

loop_
  _atom_site_type_symbol
  _atom_site_label
  _atom_site_symmetry_multiplicity
  _atom_site_fract_x
  _atom_site_fract_y
  _atom_site_fract_z
  _atom_site_occupancy
  Nd  Nd1       1.0  0.66700  0.33300  0.00000  1.0000
  Nd  Nd2       1.0  0.33300  0.66700  0.00000  1.0000
  Nd  Nd3       1.0  0.75900  0.75900  0.25000  1.0000
  Nd  Nd4       1.0  0.24100  0.00000  0.25000  1.0000
  Nd  Nd5       1.0  0.00000  0.24100  0.25000  1.0000
  Nd  Nd6       1.0  0.66700  0.33300  0.50000  1.0000
  Nd  Nd7       1.0  0.33300  0.66700  0.50000  1.0000
  Nd  Nd8       1.0  0.24100  0.24100  0.75000  1.0000
  Nd  Nd9       1.0  0.75900  0.00000  0.75000  1.0000
  Nd  Nd10      1.0  0.00000  0.75900  0.75000  1.0000
  Sn  Sn1       1.0  0.60500  0.00000  0.25000  1.0000
  Sn  Sn2       1.0  0.00000  0.60500  0.25000  1.0000
  Sn  Sn3       1.0  0.39500  0.39500  0.25000  1.0000
  Sn  Sn4       1.0  0.39500  0.00000  0.75000  1.0000
  Sn  Sn5       1.0  0.00000  0.39500  0.75000  1.0000
  Sn  Sn6       1.0  0.60500  0.60500  0.75000  1.0000
