data_image0
_chemical_formula_structural       In2Pd4Pr4
_chemical_formula_sum              "In2 Pd4 Pr4"
_cell_length_a       7.86168
_cell_length_b       7.86168
_cell_length_c       3.92054
_cell_angle_alpha    90
_cell_angle_beta     90
_cell_angle_gamma    90

_space_group_name_H-M_alt    "P 1"
_space_group_IT_number       1

loop_
  _space_group_symop_operation_xyz
  'x, y, z'

loop_
  _atom_site_type_symbol
  _atom_site_label
  _atom_site_symmetry_multiplicity
  _atom_site_fract_x
  _atom_site_fract_y
  _atom_site_fract_z
  _atom_site_occupancy
  In  In1       1.0  0.00000  0.00000  0.00000  1.0000
  In  In2       1.0  0.50000  0.50000  0.00000  1.0000
  Pd  Pd1       1.0  0.62700  0.12700  0.00000  1.0000
  Pd  Pd2       1.0  0.12700  0.37300  0.00000  1.0000
  Pd  Pd3       1.0  0.87300  0.62700  0.00000  1.0000
  Pd  Pd4       1.0  0.37300  0.87300  0.00000  1.0000
  Pr  Pr1       1.0  0.32400  0.17600  0.50000  1.0000
  Pr  Pr2       1.0  0.82400  0.32400  0.50000  1.0000
  Pr  Pr3       1.0  0.17600  0.67600  0.50000  1.0000
  Pr  Pr4       1.0  0.67600  0.82400  0.50000  1.0000
