data_image0
_chemical_formula_structural       PdTe2
_chemical_formula_sum              "Pd1 Te2"
_cell_length_a       4.09193
_cell_length_b       4.09194
_cell_length_c       5.16221
_cell_angle_alpha    90
_cell_angle_beta     90.0008
_cell_angle_gamma    120

_space_group_name_H-M_alt    "P 1"
_space_group_IT_number       1

loop_
  _space_group_symop_operation_xyz
  'x, y, z'

loop_
  _atom_site_type_symbol
  _atom_site_label
  _atom_site_symmetry_multiplicity
  _atom_site_fract_x
  _atom_site_fract_y
  _atom_site_fract_z
  _atom_site_occupancy
  Pd  Pd1       1.0  0.00000  0.00000  0.00000  1.0000
  Te  Te1       1.0  0.33300  0.66700  0.26500  1.0000
  Te  Te2       1.0  0.66700  0.33300  0.73500  1.0000
