data_image0
_chemical_formula_structural       Ge2S2U2
_chemical_formula_sum              "Ge2 S2 U2"
_cell_length_a       4.10116
_cell_length_b       4.10116
_cell_length_c       7.25803
_cell_angle_alpha    90
_cell_angle_beta     90
_cell_angle_gamma    90

_space_group_name_H-M_alt    "P 1"
_space_group_IT_number       1

loop_
  _space_group_symop_operation_xyz
  'x, y, z'

loop_
  _atom_site_type_symbol
  _atom_site_label
  _atom_site_symmetry_multiplicity
  _atom_site_fract_x
  _atom_site_fract_y
  _atom_site_fract_z
  _atom_site_occupancy
  Ge  Ge1       1.0  0.50000  0.00000  0.36500  1.0000
  Ge  Ge2       1.0  0.00000  0.50000  0.63500  1.0000
  S   S1        1.0  0.00000  0.00000  0.00000  1.0000
  S   S2        1.0  0.50000  0.50000  0.00000  1.0000
  U   U1        1.0  0.00000  0.50000  0.24100  1.0000
  U   U2        1.0  0.50000  0.00000  0.75900  1.0000
