data_image0
_chemical_formula_structural       F4Si6
_chemical_formula_sum              "F4 Si6"
_cell_length_a       6.62857
_cell_length_b       6.62857
_cell_length_c       5.15516
_cell_angle_alpha    130.009
_cell_angle_beta     49.9912
_cell_angle_gamma    120

_space_group_name_H-M_alt    "P 1"
_space_group_IT_number       1

loop_
  _space_group_symop_operation_xyz
  'x, y, z'

loop_
  _atom_site_type_symbol
  _atom_site_label
  _atom_site_symmetry_multiplicity
  _atom_site_fract_x
  _atom_site_fract_y
  _atom_site_fract_z
  _atom_site_occupancy
  F   F1        1.0  0.64100  0.35900  0.07760  1.0000
  F   F2        1.0  0.85900  0.14100  0.42200  1.0000
  F   F3        1.0  0.14100  0.85900  0.57800  1.0000
  F   F4        1.0  0.35900  0.64100  0.92200  1.0000
  Si  Si1       1.0  0.75000  0.25000  0.25000  1.0000
  Si  Si2       1.0  0.75000  0.75000  0.25000  1.0000
  Si  Si3       1.0  0.25000  0.25000  0.25000  1.0000
  Si  Si4       1.0  0.75000  0.75000  0.75000  1.0000
  Si  Si5       1.0  0.25000  0.25000  0.75000  1.0000
  Si  Si6       1.0  0.25000  0.75000  0.75000  1.0000
