data_image0
_chemical_formula_structural       F4O6
_chemical_formula_sum              "F4 O6"
_cell_length_a       5.52838
_cell_length_b       5.52838
_cell_length_c       4.70283
_cell_angle_alpha    125.999
_cell_angle_beta     54.0009
_cell_angle_gamma    120

_space_group_name_H-M_alt    "P 1"
_space_group_IT_number       1

loop_
  _space_group_symop_operation_xyz
  'x, y, z'

loop_
  _atom_site_type_symbol
  _atom_site_label
  _atom_site_symmetry_multiplicity
  _atom_site_fract_x
  _atom_site_fract_y
  _atom_site_fract_z
  _atom_site_occupancy
  F   F1        1.0  0.64000  0.36000  0.07860  1.0000
  F   F2        1.0  0.86000  0.14000  0.42100  1.0000
  F   F3        1.0  0.14000  0.86000  0.57900  1.0000
  F   F4        1.0  0.36000  0.64000  0.92100  1.0000
  O   O1        1.0  0.74900  0.24900  0.25000  1.0000
  O   O2        1.0  0.25000  0.25100  0.25000  1.0000
  O   O3        1.0  0.75100  0.75000  0.25000  1.0000
  O   O4        1.0  0.24900  0.25000  0.75000  1.0000
  O   O5        1.0  0.75000  0.74900  0.75000  1.0000
  O   O6        1.0  0.25100  0.75100  0.75000  1.0000
