data_image0
_chemical_formula_structural       Cl4Te6
_chemical_formula_sum              "Cl4 Te6"
_cell_length_a       7.00332
_cell_length_b       7.00332
_cell_length_c       10.3887
_cell_angle_alpha    109.698
_cell_angle_beta     70.3019
_cell_angle_gamma    120

_space_group_name_H-M_alt    "P 1"
_space_group_IT_number       1

loop_
  _space_group_symop_operation_xyz
  'x, y, z'

loop_
  _atom_site_type_symbol
  _atom_site_label
  _atom_site_symmetry_multiplicity
  _atom_site_fract_x
  _atom_site_fract_y
  _atom_site_fract_z
  _atom_site_occupancy
  Cl  Cl1       1.0  0.62300  0.37700  0.13200  1.0000
  Cl  Cl2       1.0  0.87700  0.12300  0.36800  1.0000
  Cl  Cl3       1.0  0.12300  0.87700  0.63200  1.0000
  Cl  Cl4       1.0  0.37700  0.62300  0.86800  1.0000
  Te  Te1       1.0  0.48100  0.75000  0.25000  1.0000
  Te  Te2       1.0  0.01870  0.51900  0.25000  1.0000
  Te  Te3       1.0  0.25000  0.98100  0.25000  1.0000
  Te  Te4       1.0  0.75000  0.01870  0.75000  1.0000
  Te  Te5       1.0  0.98100  0.48100  0.75000  1.0000
  Te  Te6       1.0  0.51900  0.25000  0.75000  1.0000
