data_image0
_chemical_formula_structural       As2MnO2Sr2Zn2
_chemical_formula_sum              "As2 Mn1 O2 Sr2 Zn2"
_cell_length_a       4.16714
_cell_length_b       4.16714
_cell_length_c       9.75126
_cell_angle_alpha    102.338
_cell_angle_beta     102.338
_cell_angle_gamma    90

_space_group_name_H-M_alt    "P 1"
_space_group_IT_number       1

loop_
  _space_group_symop_operation_xyz
  'x, y, z'

loop_
  _atom_site_type_symbol
  _atom_site_label
  _atom_site_symmetry_multiplicity
  _atom_site_fract_x
  _atom_site_fract_y
  _atom_site_fract_z
  _atom_site_occupancy
  As  As1       1.0  0.16800  0.16800  0.33600  1.0000
  As  As2       1.0  0.83200  0.83200  0.66400  1.0000
  Mn  Mn1       1.0  0.00000  0.00000  0.00000  1.0000
  O   O1        1.0  0.50000  0.00000  0.00000  1.0000
  O   O2        1.0  0.00000  0.50000  0.00000  1.0000
  Sr  Sr1       1.0  0.58800  0.58800  0.17500  1.0000
  Sr  Sr2       1.0  0.41200  0.41200  0.82500  1.0000
  Zn  Zn1       1.0  0.75000  0.25000  0.50000  1.0000
  Zn  Zn2       1.0  0.25000  0.75000  0.50000  1.0000
