data_image0
_chemical_formula_structural       Cd2La
_chemical_formula_sum              "Cd2 La1"
_cell_length_a       5.09026
_cell_length_b       5.09144
_cell_length_c       3.54506
_cell_angle_alpha    90
_cell_angle_beta     90.1072
_cell_angle_gamma    120.008

_space_group_name_H-M_alt    "P 1"
_space_group_IT_number       1

loop_
  _space_group_symop_operation_xyz
  'x, y, z'

loop_
  _atom_site_type_symbol
  _atom_site_label
  _atom_site_symmetry_multiplicity
  _atom_site_fract_x
  _atom_site_fract_y
  _atom_site_fract_z
  _atom_site_occupancy
  Cd  Cd1       1.0  0.33300  0.66700  0.49600  1.0000
  Cd  Cd2       1.0  0.66700  0.33300  0.50400  1.0000
  La  La1       1.0  0.00000  0.00000  0.00000  1.0000
