data_image0
_chemical_formula_structural       Li12O48Sb12Se8
_chemical_formula_sum              "Li12 O48 Sb12 Se8"
_cell_length_a       10.5357
_cell_length_b       10.5357
_cell_length_c       10.5357
_cell_angle_alpha    109.471
_cell_angle_beta     109.471
_cell_angle_gamma    109.471

_space_group_name_H-M_alt    "P 1"
_space_group_IT_number       1

loop_
  _space_group_symop_operation_xyz
  'x, y, z'

loop_
  _atom_site_type_symbol
  _atom_site_label
  _atom_site_symmetry_multiplicity
  _atom_site_fract_x
  _atom_site_fract_y
  _atom_site_fract_z
  _atom_site_occupancy
  Li  Li1       1.0  0.87500  0.75000  0.12500  1.0000
  Li  Li2       1.0  0.75000  0.37500  0.12500  1.0000
  Li  Li3       1.0  0.12500  0.37500  0.25000  1.0000
  Li  Li4       1.0  0.62500  0.87500  0.25000  1.0000
  Li  Li5       1.0  0.62500  0.25000  0.37500  1.0000
  Li  Li6       1.0  0.25000  0.12500  0.37500  1.0000
  Li  Li7       1.0  0.37500  0.75000  0.62500  1.0000
  Li  Li8       1.0  0.75000  0.87500  0.62500  1.0000
  Li  Li9       1.0  0.37500  0.12500  0.75000  1.0000
  Li  Li10      1.0  0.87500  0.62500  0.75000  1.0000
  Li  Li11      1.0  0.12500  0.25000  0.87500  1.0000
  Li  Li12      1.0  0.25000  0.62500  0.87500  1.0000
  O   O1        1.0  0.33100  0.40900  0.01890  1.0000
  O   O2        1.0  0.18800  0.61000  0.01890  1.0000
  O   O3        1.0  0.89000  0.90900  0.07780  1.0000
  O   O4        1.0  0.68800  0.16900  0.07780  1.0000
  O   O5        1.0  0.98100  0.16900  0.09090  1.0000
  O   O6        1.0  0.61000  0.92200  0.09090  1.0000
  O   O7        1.0  0.01890  0.68800  0.11000  1.0000
  O   O8        1.0  0.59100  0.42200  0.11000  1.0000
  O   O9        1.0  0.18800  0.07780  0.16900  1.0000
  O   O10       1.0  0.48100  0.09090  0.16900  1.0000
  O   O11       1.0  0.57800  0.66900  0.18800  1.0000
  O   O12       1.0  0.11000  0.51900  0.18800  1.0000
  O   O13       1.0  0.33100  0.42200  0.31200  1.0000
  O   O14       1.0  0.48100  0.89000  0.31200  1.0000
  O   O15       1.0  0.90900  0.51900  0.33100  1.0000
  O   O16       1.0  0.92200  0.81200  0.33100  1.0000
  O   O17       1.0  0.57800  0.40900  0.39000  1.0000
  O   O18       1.0  0.31200  0.98100  0.39000  1.0000
  O   O19       1.0  0.07780  0.39000  0.40900  1.0000
  O   O20       1.0  0.83100  0.01890  0.40900  1.0000
  O   O21       1.0  0.09090  0.11000  0.42200  1.0000
  O   O22       1.0  0.83100  0.31200  0.42200  1.0000
  O   O23       1.0  0.59100  0.66900  0.48100  1.0000
  O   O24       1.0  0.39000  0.81200  0.48100  1.0000
  O   O25       1.0  0.61000  0.18800  0.51900  1.0000
  O   O26       1.0  0.40900  0.33100  0.51900  1.0000
  O   O27       1.0  0.90900  0.89000  0.57800  1.0000
  O   O28       1.0  0.16900  0.68800  0.57800  1.0000
  O   O29       1.0  0.92200  0.61000  0.59100  1.0000
  O   O30       1.0  0.16900  0.98100  0.59100  1.0000
  O   O31       1.0  0.68800  0.01890  0.61000  1.0000
  O   O32       1.0  0.42200  0.59100  0.61000  1.0000
  O   O33       1.0  0.07780  0.18800  0.66900  1.0000
  O   O34       1.0  0.09090  0.48100  0.66900  1.0000
  O   O35       1.0  0.66900  0.57800  0.68800  1.0000
  O   O36       1.0  0.51900  0.11000  0.68800  1.0000
  O   O37       1.0  0.42200  0.33100  0.81200  1.0000
  O   O38       1.0  0.89000  0.48100  0.81200  1.0000
  O   O39       1.0  0.51900  0.90900  0.83100  1.0000
  O   O40       1.0  0.81200  0.92200  0.83100  1.0000
  O   O41       1.0  0.98100  0.31200  0.89000  1.0000
  O   O42       1.0  0.40900  0.57800  0.89000  1.0000
  O   O43       1.0  0.39000  0.07780  0.90900  1.0000
  O   O44       1.0  0.01890  0.83100  0.90900  1.0000
  O   O45       1.0  0.11000  0.09090  0.92200  1.0000
  O   O46       1.0  0.31200  0.83100  0.92200  1.0000
  O   O47       1.0  0.66900  0.59100  0.98100  1.0000
  O   O48       1.0  0.81200  0.39000  0.98100  1.0000
  Sb  Sb1       1.0  0.25000  0.87500  0.12500  1.0000
  Sb  Sb2       1.0  0.37500  0.25000  0.12500  1.0000
  Sb  Sb3       1.0  0.87500  0.12500  0.25000  1.0000
  Sb  Sb4       1.0  0.37500  0.62500  0.25000  1.0000
  Sb  Sb5       1.0  0.12500  0.75000  0.37500  1.0000
  Sb  Sb6       1.0  0.75000  0.62500  0.37500  1.0000
  Sb  Sb7       1.0  0.87500  0.25000  0.62500  1.0000
  Sb  Sb8       1.0  0.25000  0.37500  0.62500  1.0000
  Sb  Sb9       1.0  0.12500  0.87500  0.75000  1.0000
  Sb  Sb10      1.0  0.62500  0.37500  0.75000  1.0000
  Sb  Sb11      1.0  0.75000  0.12500  0.87500  1.0000
  Sb  Sb12      1.0  0.62500  0.75000  0.87500  1.0000
  Se  Se1       1.0  0.00000  0.00000  0.00000  1.0000
  Se  Se2       1.0  0.50000  0.00000  0.00000  1.0000
  Se  Se3       1.0  0.50000  0.50000  0.00000  1.0000
  Se  Se4       1.0  0.00000  0.50000  0.00000  1.0000
  Se  Se5       1.0  0.50000  0.00000  0.50000  1.0000
  Se  Se6       1.0  0.00000  0.50000  0.50000  1.0000
  Se  Se7       1.0  0.00000  0.00000  0.50000  1.0000
  Se  Se8       1.0  0.50000  0.50000  0.50000  1.0000
