data_image0
_chemical_formula_structural       Ce12Li12O48Te8
_chemical_formula_sum              "Ce12 Li12 O48 Te8"
_cell_length_a       11.014
_cell_length_b       11.014
_cell_length_c       11.014
_cell_angle_alpha    109.471
_cell_angle_beta     109.471
_cell_angle_gamma    109.471

_space_group_name_H-M_alt    "P 1"
_space_group_IT_number       1

loop_
  _space_group_symop_operation_xyz
  'x, y, z'

loop_
  _atom_site_type_symbol
  _atom_site_label
  _atom_site_symmetry_multiplicity
  _atom_site_fract_x
  _atom_site_fract_y
  _atom_site_fract_z
  _atom_site_occupancy
  Ce  Ce1       1.0  0.25000  0.87500  0.12500  1.0000
  Ce  Ce2       1.0  0.37500  0.25000  0.12500  1.0000
  Ce  Ce3       1.0  0.87500  0.12500  0.25000  1.0000
  Ce  Ce4       1.0  0.37500  0.62500  0.25000  1.0000
  Ce  Ce5       1.0  0.12500  0.75000  0.37500  1.0000
  Ce  Ce6       1.0  0.75000  0.62500  0.37500  1.0000
  Ce  Ce7       1.0  0.87500  0.25000  0.62500  1.0000
  Ce  Ce8       1.0  0.25000  0.37500  0.62500  1.0000
  Ce  Ce9       1.0  0.62500  0.37500  0.75000  1.0000
  Ce  Ce10      1.0  0.12500  0.87500  0.75000  1.0000
  Ce  Ce11      1.0  0.62500  0.75000  0.87500  1.0000
  Ce  Ce12      1.0  0.75000  0.12500  0.87500  1.0000
  Li  Li1       1.0  0.75000  0.37500  0.12500  1.0000
  Li  Li2       1.0  0.87500  0.75000  0.12500  1.0000
  Li  Li3       1.0  0.12500  0.37500  0.25000  1.0000
  Li  Li4       1.0  0.62500  0.87500  0.25000  1.0000
  Li  Li5       1.0  0.62500  0.25000  0.37500  1.0000
  Li  Li6       1.0  0.25000  0.12500  0.37500  1.0000
  Li  Li7       1.0  0.37500  0.75000  0.62500  1.0000
  Li  Li8       1.0  0.75000  0.87500  0.62500  1.0000
  Li  Li9       1.0  0.37500  0.12500  0.75000  1.0000
  Li  Li10      1.0  0.87500  0.62500  0.75000  1.0000
  Li  Li11      1.0  0.12500  0.25000  0.87500  1.0000
  Li  Li12      1.0  0.25000  0.62500  0.87500  1.0000
  O   O1        1.0  0.19200  0.61400  0.02080  1.0000
  O   O2        1.0  0.32900  0.40700  0.02080  1.0000
  O   O3        1.0  0.88600  0.90700  0.07750  1.0000
  O   O4        1.0  0.69200  0.17100  0.07750  1.0000
  O   O5        1.0  0.61400  0.92200  0.09340  1.0000
  O   O6        1.0  0.97900  0.17100  0.09340  1.0000
  O   O7        1.0  0.59300  0.42200  0.11400  1.0000
  O   O8        1.0  0.02080  0.69200  0.11400  1.0000
  O   O9        1.0  0.47900  0.09340  0.17100  1.0000
  O   O10       1.0  0.19200  0.07750  0.17100  1.0000
  O   O11       1.0  0.57800  0.67100  0.19200  1.0000
  O   O12       1.0  0.11400  0.52100  0.19200  1.0000
  O   O13       1.0  0.47900  0.88600  0.30800  1.0000
  O   O14       1.0  0.32900  0.42200  0.30800  1.0000
  O   O15       1.0  0.90700  0.52100  0.32900  1.0000
  O   O16       1.0  0.92200  0.80800  0.32900  1.0000
  O   O17       1.0  0.30800  0.97900  0.38600  1.0000
  O   O18       1.0  0.57800  0.40700  0.38600  1.0000
  O   O19       1.0  0.82900  0.02080  0.40700  1.0000
  O   O20       1.0  0.07750  0.38600  0.40700  1.0000
  O   O21       1.0  0.82900  0.30800  0.42200  1.0000
  O   O22       1.0  0.09340  0.11400  0.42200  1.0000
  O   O23       1.0  0.59300  0.67100  0.47900  1.0000
  O   O24       1.0  0.38600  0.80800  0.47900  1.0000
  O   O25       1.0  0.61400  0.19200  0.52100  1.0000
  O   O26       1.0  0.40700  0.32900  0.52100  1.0000
  O   O27       1.0  0.17100  0.69200  0.57800  1.0000
  O   O28       1.0  0.90700  0.88600  0.57800  1.0000
  O   O29       1.0  0.92200  0.61400  0.59300  1.0000
  O   O30       1.0  0.17100  0.97900  0.59300  1.0000
  O   O31       1.0  0.69200  0.02080  0.61400  1.0000
  O   O32       1.0  0.42200  0.59300  0.61400  1.0000
  O   O33       1.0  0.07750  0.19200  0.67100  1.0000
  O   O34       1.0  0.09340  0.47900  0.67100  1.0000
  O   O35       1.0  0.52100  0.11400  0.69200  1.0000
  O   O36       1.0  0.67100  0.57800  0.69200  1.0000
  O   O37       1.0  0.42200  0.32900  0.80800  1.0000
  O   O38       1.0  0.88600  0.47900  0.80800  1.0000
  O   O39       1.0  0.80800  0.92200  0.82900  1.0000
  O   O40       1.0  0.52100  0.90700  0.82900  1.0000
  O   O41       1.0  0.40700  0.57800  0.88600  1.0000
  O   O42       1.0  0.97900  0.30800  0.88600  1.0000
  O   O43       1.0  0.02080  0.82900  0.90700  1.0000
  O   O44       1.0  0.38600  0.07750  0.90700  1.0000
  O   O45       1.0  0.11400  0.09340  0.92200  1.0000
  O   O46       1.0  0.30800  0.82900  0.92200  1.0000
  O   O47       1.0  0.67100  0.59300  0.97900  1.0000
  O   O48       1.0  0.80800  0.38600  0.97900  1.0000
  Te  Te1       1.0  0.00000  0.00000  0.00000  1.0000
  Te  Te2       1.0  0.50000  0.00000  0.00000  1.0000
  Te  Te3       1.0  0.50000  0.50000  0.00000  1.0000
  Te  Te4       1.0  0.00000  0.50000  0.00000  1.0000
  Te  Te5       1.0  0.50000  0.00000  0.50000  1.0000
  Te  Te6       1.0  0.00000  0.50000  0.50000  1.0000
  Te  Te7       1.0  0.00000  0.00000  0.50000  1.0000
  Te  Te8       1.0  0.50000  0.50000  0.50000  1.0000
