data_image0
_chemical_formula_structural       CH6N4O3
_chemical_formula_sum              "C1 H6 N4 O3"
_cell_length_a       3.30977
_cell_length_b       6.57545
_cell_length_c       6.57545
_cell_angle_alpha    98.7607
_cell_angle_beta     89.0067
_cell_angle_gamma    90.9933

_space_group_name_H-M_alt    "P 1"
_space_group_IT_number       1

loop_
  _space_group_symop_operation_xyz
  'x, y, z'

loop_
  _atom_site_type_symbol
  _atom_site_label
  _atom_site_symmetry_multiplicity
  _atom_site_fract_x
  _atom_site_fract_y
  _atom_site_fract_z
  _atom_site_occupancy
  C   C1        1.0  0.14500  0.29500  0.70500  1.0000
  H   H1        1.0  0.34000  0.52100  0.09520  1.0000
  H   H2        1.0  0.49600  0.55700  0.21200  1.0000
  H   H3        1.0  0.98000  0.29500  0.30000  1.0000
  H   H4        1.0  0.49600  0.78800  0.44300  1.0000
  H   H5        1.0  0.34000  0.90500  0.47900  1.0000
  H   H6        1.0  0.98000  0.70000  0.70500  1.0000
  N   N1        1.0  0.90600  0.02680  0.10300  1.0000
  N   N2        1.0  0.01060  0.42100  0.57900  1.0000
  N   N3        1.0  0.35000  0.20000  0.80000  1.0000
  N   N4        1.0  0.90600  0.89700  0.97300  1.0000
  O   O1        1.0  0.34700  0.70700  0.29300  1.0000
  O   O2        1.0  0.78700  0.31500  0.41600  1.0000
  O   O3        1.0  0.78700  0.58400  0.68500  1.0000
