data_image0
_chemical_formula_structural       Er10Ga6
_chemical_formula_sum              "Er10 Ga6"
_cell_length_a       8.50961
_cell_length_b       8.50961
_cell_length_c       6.43581
_cell_angle_alpha    90
_cell_angle_beta     90
_cell_angle_gamma    120.001

_space_group_name_H-M_alt    "P 1"
_space_group_IT_number       1

loop_
  _space_group_symop_operation_xyz
  'x, y, z'

loop_
  _atom_site_type_symbol
  _atom_site_label
  _atom_site_symmetry_multiplicity
  _atom_site_fract_x
  _atom_site_fract_y
  _atom_site_fract_z
  _atom_site_occupancy
  Er  Er1       1.0  0.66700  0.33300  0.00000  1.0000
  Er  Er2       1.0  0.33300  0.66700  0.00000  1.0000
  Er  Er3       1.0  0.75800  0.75800  0.25000  1.0000
  Er  Er4       1.0  0.24200  1.00000  0.25000  1.0000
  Er  Er5       1.0  1.00000  0.24200  0.25000  1.0000
  Er  Er6       1.0  0.66700  0.33300  0.50000  1.0000
  Er  Er7       1.0  0.33300  0.66700  0.50000  1.0000
  Er  Er8       1.0  0.24200  0.24200  0.75000  1.0000
  Er  Er9       1.0  0.75800  0.00000  0.75000  1.0000
  Er  Er10      1.0  0.00000  0.75800  0.75000  1.0000
  Ga  Ga1       1.0  0.59800  1.00000  0.25000  1.0000
  Ga  Ga2       1.0  1.00000  0.59800  0.25000  1.0000
  Ga  Ga3       1.0  0.40200  0.40200  0.25000  1.0000
  Ga  Ga4       1.0  0.40200  0.00000  0.75000  1.0000
  Ga  Ga5       1.0  0.00000  0.40200  0.75000  1.0000
  Ga  Ga6       1.0  0.59800  0.59800  0.75000  1.0000
