data_image0
_chemical_formula_structural       Nd3O12P3
_chemical_formula_sum              "Nd3 O12 P3"
_cell_length_a       7.04104
_cell_length_b       7.04104
_cell_length_c       6.34201
_cell_angle_alpha    90
_cell_angle_beta     90
_cell_angle_gamma    120

_space_group_name_H-M_alt    "P 1"
_space_group_IT_number       1

loop_
  _space_group_symop_operation_xyz
  'x, y, z'

loop_
  _atom_site_type_symbol
  _atom_site_label
  _atom_site_symmetry_multiplicity
  _atom_site_fract_x
  _atom_site_fract_y
  _atom_site_fract_z
  _atom_site_occupancy
  Nd  Nd1       1.0  0.50000  0.00000  0.00000  1.0000
  Nd  Nd2       1.0  0.50000  0.50000  0.33300  1.0000
  Nd  Nd3       1.0  0.00000  0.50000  0.66700  1.0000
  O   O1        1.0  0.86300  0.30600  0.01700  1.0000
  O   O2        1.0  0.13700  0.69400  0.01700  1.0000
  O   O3        1.0  0.13700  0.44300  0.31600  1.0000
  O   O4        1.0  0.86300  0.55700  0.31600  1.0000
  O   O5        1.0  0.44300  0.13700  0.35000  1.0000
  O   O6        1.0  0.55700  0.86300  0.35000  1.0000
  O   O7        1.0  0.69400  0.13700  0.65000  1.0000
  O   O8        1.0  0.30600  0.86300  0.65000  1.0000
  O   O9        1.0  0.30600  0.44300  0.68400  1.0000
  O   O10       1.0  0.69400  0.55700  0.68400  1.0000
  O   O11       1.0  0.44300  0.30600  0.98300  1.0000
  O   O12       1.0  0.55700  0.69400  0.98300  1.0000
  P   P1        1.0  0.00000  0.50000  0.16700  1.0000
  P   P2        1.0  0.50000  0.00000  0.50000  1.0000
  P   P3        1.0  0.50000  0.50000  0.83300  1.0000
