data_image0
_chemical_formula_structural       C12Nd8
_chemical_formula_sum              "C12 Nd8"
_cell_length_a       7.44159
_cell_length_b       7.44159
_cell_length_c       7.44159
_cell_angle_alpha    109.471
_cell_angle_beta     109.471
_cell_angle_gamma    109.471

_space_group_name_H-M_alt    "P 1"
_space_group_IT_number       1

loop_
  _space_group_symop_operation_xyz
  'x, y, z'

loop_
  _atom_site_type_symbol
  _atom_site_label
  _atom_site_symmetry_multiplicity
  _atom_site_fract_x
  _atom_site_fract_y
  _atom_site_fract_z
  _atom_site_occupancy
  C   C1        1.0  0.75000  0.29800  0.04760  1.0000
  C   C2        1.0  0.75000  0.45200  0.20200  1.0000
  C   C3        1.0  0.29800  0.54800  0.25000  1.0000
  C   C4        1.0  0.45200  0.70200  0.25000  1.0000
  C   C5        1.0  0.25000  0.04760  0.29800  1.0000
  C   C6        1.0  0.25000  0.20200  0.45200  1.0000
  C   C7        1.0  0.79800  0.25000  0.54800  1.0000
  C   C8        1.0  0.95200  0.25000  0.70200  1.0000
  C   C9        1.0  0.04760  0.79800  0.75000  1.0000
  C   C10       1.0  0.20200  0.95200  0.75000  1.0000
  C   C11       1.0  0.54800  0.75000  0.79800  1.0000
  C   C12       1.0  0.70200  0.75000  0.95200  1.0000
  Nd  Nd1       1.0  0.00000  0.10300  0.00000  1.0000
  Nd  Nd2       1.0  0.00000  0.60300  0.00000  1.0000
  Nd  Nd3       1.0  0.50000  0.00000  0.10300  1.0000
  Nd  Nd4       1.0  0.89700  0.89700  0.39700  1.0000
  Nd  Nd5       1.0  0.10300  0.50000  0.50000  1.0000
  Nd  Nd6       1.0  0.60300  0.50000  0.50000  1.0000
  Nd  Nd7       1.0  0.50000  0.00000  0.60300  1.0000
  Nd  Nd8       1.0  0.39700  0.39700  0.89700  1.0000
