data_image0
_chemical_formula_structural       Cu2O12Se4Sr2
_chemical_formula_sum              "Cu2 O12 Se4 Sr2"
_cell_length_a       4.68241
_cell_length_b       4.68241
_cell_length_c       14.8682
_cell_angle_alpha    90.7337
_cell_angle_beta     90.7337
_cell_angle_gamma    66.7171

_space_group_name_H-M_alt    "P 1"
_space_group_IT_number       1

loop_
  _space_group_symop_operation_xyz
  'x, y, z'

loop_
  _atom_site_type_symbol
  _atom_site_label
  _atom_site_symmetry_multiplicity
  _atom_site_fract_x
  _atom_site_fract_y
  _atom_site_fract_z
  _atom_site_occupancy
  Cu  Cu1       1.0  0.00000  0.00000  0.00000  1.0000
  Cu  Cu2       1.0  0.00000  0.00000  0.50000  1.0000
  O   O1        1.0  0.74100  0.32500  0.08270  1.0000
  O   O2        1.0  0.16300  0.75200  0.10500  1.0000
  O   O3        1.0  0.36600  0.24300  0.20200  1.0000
  O   O4        1.0  0.75700  0.63400  0.29800  1.0000
  O   O5        1.0  0.24800  0.83700  0.39500  1.0000
  O   O6        1.0  0.67500  0.25900  0.41700  1.0000
  O   O7        1.0  0.32500  0.74100  0.58300  1.0000
  O   O8        1.0  0.75200  0.16300  0.60500  1.0000
  O   O9        1.0  0.24300  0.36600  0.70200  1.0000
  O   O10       1.0  0.63400  0.75700  0.79800  1.0000
  O   O11       1.0  0.83700  0.24800  0.89500  1.0000
  O   O12       1.0  0.25900  0.67500  0.91700  1.0000
  Se  Se1       1.0  0.35800  0.35000  0.09320  1.0000
  Se  Se2       1.0  0.65000  0.64200  0.40700  1.0000
  Se  Se3       1.0  0.35000  0.35800  0.59300  1.0000
  Se  Se4       1.0  0.64200  0.65000  0.90700  1.0000
  Sr  Sr1       1.0  0.94900  0.05140  0.25000  1.0000
  Sr  Sr2       1.0  0.05140  0.94900  0.75000  1.0000
