data_image0
_chemical_formula_structural       Cr4Nd4Se12
_chemical_formula_sum              "Cr4 Nd4 Se12"
_cell_length_a       8.12546
_cell_length_b       3.9578
_cell_length_c       13.6565
_cell_angle_alpha    90
_cell_angle_beta     90
_cell_angle_gamma    90

_space_group_name_H-M_alt    "P 1"
_space_group_IT_number       1

loop_
  _space_group_symop_operation_xyz
  'x, y, z'

loop_
  _atom_site_type_symbol
  _atom_site_label
  _atom_site_symmetry_multiplicity
  _atom_site_fract_x
  _atom_site_fract_y
  _atom_site_fract_z
  _atom_site_occupancy
  Cr  Cr1       1.0  0.66200  0.75000  0.05080  1.0000
  Cr  Cr2       1.0  0.16200  0.75000  0.44900  1.0000
  Cr  Cr3       1.0  0.83800  0.25000  0.55100  1.0000
  Cr  Cr4       1.0  0.33800  0.25000  0.94900  1.0000
  Nd  Nd1       1.0  0.09540  0.25000  0.17200  1.0000
  Nd  Nd2       1.0  0.59500  0.25000  0.32800  1.0000
  Nd  Nd3       1.0  0.40500  0.75000  0.67200  1.0000
  Nd  Nd4       1.0  0.90500  0.75000  0.82800  1.0000
  Se  Se1       1.0  0.15600  0.75000  0.00473  1.0000
  Se  Se2       1.0  0.48900  0.25000  0.10800  1.0000
  Se  Se3       1.0  0.81100  0.75000  0.21200  1.0000
  Se  Se4       1.0  0.31100  0.75000  0.28800  1.0000
  Se  Se5       1.0  0.98900  0.25000  0.39200  1.0000
  Se  Se6       1.0  0.65600  0.75000  0.49500  1.0000
  Se  Se7       1.0  0.34400  0.25000  0.50500  1.0000
  Se  Se8       1.0  0.01140  0.75000  0.60800  1.0000
  Se  Se9       1.0  0.68900  0.25000  0.71200  1.0000
  Se  Se10      1.0  0.18900  0.25000  0.78800  1.0000
  Se  Se11      1.0  0.51100  0.75000  0.89200  1.0000
  Se  Se12      1.0  0.84400  0.25000  0.99500  1.0000
