data_image0
_chemical_formula_structural       Dy4Ge10Rh6
_chemical_formula_sum              "Dy4 Ge10 Rh6"
_cell_length_a       5.90204
_cell_length_b       8.35138
_cell_length_c       8.35138
_cell_angle_alpha    93.0116
_cell_angle_beta     109.344
_cell_angle_gamma    109.344

_space_group_name_H-M_alt    "P 1"
_space_group_IT_number       1

loop_
  _space_group_symop_operation_xyz
  'x, y, z'

loop_
  _atom_site_type_symbol
  _atom_site_label
  _atom_site_symmetry_multiplicity
  _atom_site_fract_x
  _atom_site_fract_y
  _atom_site_fract_z
  _atom_site_occupancy
  Dy  Dy1       1.0  0.76800  0.40700  0.13300  1.0000
  Dy  Dy2       1.0  0.26800  0.13300  0.40700  1.0000
  Dy  Dy3       1.0  0.73200  0.86700  0.59300  1.0000
  Dy  Dy4       1.0  0.23200  0.59300  0.86700  1.0000
  Ge  Ge1       1.0  0.16700  0.26300  0.07130  1.0000
  Ge  Ge2       1.0  0.25000  0.78900  0.21100  1.0000
  Ge  Ge3       1.0  0.75000  0.77800  0.22200  1.0000
  Ge  Ge4       1.0  0.66700  0.07140  0.26300  1.0000
  Ge  Ge5       1.0  0.75000  0.50900  0.49100  1.0000
  Ge  Ge6       1.0  0.25000  0.49100  0.50900  1.0000
  Ge  Ge7       1.0  0.33300  0.92900  0.73700  1.0000
  Ge  Ge8       1.0  0.25000  0.22200  0.77800  1.0000
  Ge  Ge9       1.0  0.75000  0.21100  0.78900  1.0000
  Ge  Ge10      1.0  0.83300  0.73700  0.92900  1.0000
  Rh  Rh1       1.0  0.25000  0.99900  0.00148  1.0000
  Rh  Rh2       1.0  0.38100  0.54100  0.25600  1.0000
  Rh  Rh3       1.0  0.11900  0.74400  0.45900  1.0000
  Rh  Rh4       1.0  0.88100  0.25600  0.54100  1.0000
  Rh  Rh5       1.0  0.61900  0.45900  0.74400  1.0000
  Rh  Rh6       1.0  0.75000  0.00148  0.99900  1.0000
