data_image0
_chemical_formula_structural       C4H4N8Na4
_chemical_formula_sum              "C4 H4 N8 Na4"
_cell_length_a       3.4265
_cell_length_b       10.4028
_cell_length_c       6.34772
_cell_angle_alpha    90
_cell_angle_beta     90
_cell_angle_gamma    90

_space_group_name_H-M_alt    "P 1"
_space_group_IT_number       1

loop_
  _space_group_symop_operation_xyz
  'x, y, z'

loop_
  _atom_site_type_symbol
  _atom_site_label
  _atom_site_symmetry_multiplicity
  _atom_site_fract_x
  _atom_site_fract_y
  _atom_site_fract_z
  _atom_site_occupancy
  C   C1        1.0  0.80200  0.45100  0.25000  1.0000
  C   C2        1.0  0.19800  0.95100  0.25000  1.0000
  C   C3        1.0  0.80200  0.04890  0.75000  1.0000
  C   C4        1.0  0.19800  0.54900  0.75000  1.0000
  H   H1        1.0  0.82600  0.08880  0.25000  1.0000
  H   H2        1.0  0.17400  0.58900  0.25000  1.0000
  H   H3        1.0  0.82600  0.41100  0.75000  1.0000
  H   H4        1.0  0.17400  0.91100  0.75000  1.0000
  N   N1        1.0  0.12100  0.07100  0.25000  1.0000
  N   N2        1.0  0.69900  0.34100  0.25000  1.0000
  N   N3        1.0  0.87900  0.57100  0.25000  1.0000
  N   N4        1.0  0.30100  0.84100  0.25000  1.0000
  N   N5        1.0  0.69900  0.15900  0.75000  1.0000
  N   N6        1.0  0.12100  0.42900  0.75000  1.0000
  N   N7        1.0  0.30100  0.65900  0.75000  1.0000
  N   N8        1.0  0.87900  0.92900  0.75000  1.0000
  Na  Na1       1.0  0.22900  0.25000  0.00000  1.0000
  Na  Na2       1.0  0.77100  0.75000  0.00000  1.0000
  Na  Na3       1.0  0.22900  0.25000  0.50000  1.0000
  Na  Na4       1.0  0.77100  0.75000  0.50000  1.0000
