data_image0
_chemical_formula_structural       C4Er4Ni13
_chemical_formula_sum              "C4 Er4 Ni13"
_cell_length_a       3.84507
_cell_length_b       8.3774
_cell_length_c       8.3774
_cell_angle_alpha    88.5367
_cell_angle_beta     90
_cell_angle_gamma    90

_space_group_name_H-M_alt    "P 1"
_space_group_IT_number       1

loop_
  _space_group_symop_operation_xyz
  'x, y, z'

loop_
  _atom_site_type_symbol
  _atom_site_label
  _atom_site_symmetry_multiplicity
  _atom_site_fract_x
  _atom_site_fract_y
  _atom_site_fract_z
  _atom_site_occupancy
  C   C1        1.0  0.00000  0.50000  1.00000  1.0000
  C   C2        1.0  0.00000  0.44300  0.44300  1.0000
  C   C3        1.0  0.00000  1.00000  0.50000  1.0000
  C   C4        1.0  0.00000  0.55700  0.55700  1.0000
  Er  Er1       1.0  0.50000  0.18600  0.18600  1.0000
  Er  Er2       1.0  0.50000  0.65100  0.34900  1.0000
  Er  Er3       1.0  0.50000  0.34900  0.65100  1.0000
  Er  Er4       1.0  0.50000  0.81400  0.81400  1.0000
  Ni  Ni1       1.0  0.00000  0.00000  0.00000  1.0000
  Ni  Ni2       1.0  0.50000  0.50000  1.00000  1.0000
  Ni  Ni3       1.0  0.00000  0.70800  0.07500  1.0000
  Ni  Ni4       1.0  0.50000  0.87600  0.12400  1.0000
  Ni  Ni5       1.0  0.00000  0.43000  0.21600  1.0000
  Ni  Ni6       1.0  0.00000  0.92500  0.29200  1.0000
  Ni  Ni7       1.0  0.00000  0.21600  0.43000  1.0000
  Ni  Ni8       1.0  0.50000  1.00000  0.50000  1.0000
  Ni  Ni9       1.0  0.00000  0.78400  0.57000  1.0000
  Ni  Ni10      1.0  0.00000  0.07500  0.70800  1.0000
  Ni  Ni11      1.0  0.00000  0.57000  0.78400  1.0000
  Ni  Ni12      1.0  0.50000  0.12400  0.87600  1.0000
  Ni  Ni13      1.0  0.00000  0.29200  0.92500  1.0000
