data_image0
_chemical_formula_structural       O8Pu2Sm4
_chemical_formula_sum              "O8 Pu2 Sm4"
_cell_length_a       7.05832
_cell_length_b       7.05832
_cell_length_c       7.05832
_cell_angle_alpha    119.989
_cell_angle_beta     90.0187
_cell_angle_gamma    119.989

_space_group_name_H-M_alt    "P 1"
_space_group_IT_number       1

loop_
  _space_group_symop_operation_xyz
  'x, y, z'

loop_
  _atom_site_type_symbol
  _atom_site_label
  _atom_site_symmetry_multiplicity
  _atom_site_fract_x
  _atom_site_fract_y
  _atom_site_fract_z
  _atom_site_occupancy
  O   O1        1.0  0.61000  0.78000  0.39000  1.0000
  O   O2        1.0  0.61000  0.22000  0.39000  1.0000
  O   O3        1.0  0.17000  0.78000  0.39000  1.0000
  O   O4        1.0  0.14000  0.28000  0.42000  1.0000
  O   O5        1.0  0.61000  0.22000  0.83000  1.0000
  O   O6        1.0  0.14000  0.28000  0.86000  1.0000
  O   O7        1.0  0.58000  0.72000  0.86000  1.0000
  O   O8        1.0  0.14000  0.72000  0.86000  1.0000
  Pu  Pu1       1.0  0.00000  0.00000  0.00000  1.0000
  Pu  Pu2       1.0  0.75000  0.50000  0.25000  1.0000
  Sm  Sm1       1.0  0.37500  0.75000  0.12500  1.0000
  Sm  Sm2       1.0  0.87500  0.25000  0.62500  1.0000
  Sm  Sm3       1.0  0.37500  0.75000  0.62500  1.0000
  Sm  Sm4       1.0  0.37500  0.25000  0.62500  1.0000
