data_image0
_chemical_formula_structural       As2O8Te4
_chemical_formula_sum              "As2 O8 Te4"
_cell_length_a       6.66544
_cell_length_b       6.66544
_cell_length_c       6.66544
_cell_angle_alpha    114.423
_cell_angle_beta     99.9658
_cell_angle_gamma    114.423

_space_group_name_H-M_alt    "P 1"
_space_group_IT_number       1

loop_
  _space_group_symop_operation_xyz
  'x, y, z'

loop_
  _atom_site_type_symbol
  _atom_site_label
  _atom_site_symmetry_multiplicity
  _atom_site_fract_x
  _atom_site_fract_y
  _atom_site_fract_z
  _atom_site_occupancy
  As  As1       1.0  0.00000  0.00000  0.00000  1.0000
  As  As2       1.0  0.75000  0.50000  0.25000  1.0000
  O   O1        1.0  0.11200  0.20000  0.31100  1.0000
  O   O2        1.0  0.63800  0.70000  0.33800  1.0000
  O   O3        1.0  0.66200  0.30000  0.36200  1.0000
  O   O4        1.0  0.06120  0.70000  0.36200  1.0000
  O   O5        1.0  0.68900  0.80000  0.88800  1.0000
  O   O6        1.0  0.08800  0.20000  0.88800  1.0000
  O   O7        1.0  0.11200  0.80000  0.91200  1.0000
  O   O8        1.0  0.63800  0.30000  0.93900  1.0000
  Te  Te1       1.0  0.37500  0.75000  0.12500  1.0000
  Te  Te2       1.0  0.87500  0.25000  0.62500  1.0000
  Te  Te3       1.0  0.37500  0.75000  0.62500  1.0000
  Te  Te4       1.0  0.37500  0.25000  0.62500  1.0000
