data_image0
_chemical_formula_structural       Ba2O8Pb4
_chemical_formula_sum              "Ba2 O8 Pb4"
_cell_length_a       7.2593
_cell_length_b       7.2593
_cell_length_c       7.2593
_cell_angle_alpha    119.993
_cell_angle_beta     90.0124
_cell_angle_gamma    119.993

_space_group_name_H-M_alt    "P 1"
_space_group_IT_number       1

loop_
  _space_group_symop_operation_xyz
  'x, y, z'

loop_
  _atom_site_type_symbol
  _atom_site_label
  _atom_site_symmetry_multiplicity
  _atom_site_fract_x
  _atom_site_fract_y
  _atom_site_fract_z
  _atom_site_occupancy
  Ba  Ba1       1.0  0.00000  0.00000  0.00000  1.0000
  Ba  Ba2       1.0  0.75000  0.50000  0.25000  1.0000
  O   O1        1.0  0.60600  0.21300  0.39300  1.0000
  O   O2        1.0  0.18000  0.78700  0.39300  1.0000
  O   O3        1.0  0.60700  0.78700  0.39400  1.0000
  O   O4        1.0  0.14300  0.28700  0.43000  1.0000
  O   O5        1.0  0.60700  0.21300  0.82000  1.0000
  O   O6        1.0  0.14300  0.71300  0.85600  1.0000
  O   O7        1.0  0.57000  0.71300  0.85700  1.0000
  O   O8        1.0  0.14400  0.28700  0.85700  1.0000
  Pb  Pb1       1.0  0.37500  0.75000  0.12500  1.0000
  Pb  Pb2       1.0  0.37500  0.25000  0.62500  1.0000
  Pb  Pb3       1.0  0.37500  0.75000  0.62500  1.0000
  Pb  Pb4       1.0  0.87500  0.25000  0.62500  1.0000
