data_image0
_chemical_formula_structural       Cr2Fe4O8
_chemical_formula_sum              "Cr2 Fe4 O8"
_cell_length_a       5.91317
_cell_length_b       5.91317
_cell_length_c       5.91317
_cell_angle_alpha    116.176
_cell_angle_beta     96.7617
_cell_angle_gamma    116.176

_space_group_name_H-M_alt    "P 1"
_space_group_IT_number       1

loop_
  _space_group_symop_operation_xyz
  'x, y, z'

loop_
  _atom_site_type_symbol
  _atom_site_label
  _atom_site_symmetry_multiplicity
  _atom_site_fract_x
  _atom_site_fract_y
  _atom_site_fract_z
  _atom_site_occupancy
  Cr  Cr1       1.0  0.00000  0.00000  0.00000  1.0000
  Cr  Cr2       1.0  0.75000  0.50000  0.25000  1.0000
  Fe  Fe1       1.0  0.37500  0.75000  0.12500  1.0000
  Fe  Fe2       1.0  0.37500  0.75000  0.62500  1.0000
  Fe  Fe3       1.0  0.37500  0.25000  0.62500  1.0000
  Fe  Fe4       1.0  0.87500  0.25000  0.62500  1.0000
  O   O1        1.0  0.15900  0.79100  0.36800  1.0000
  O   O2        1.0  0.57700  0.20900  0.36800  1.0000
  O   O3        1.0  0.11800  0.29100  0.40900  1.0000
  O   O4        1.0  0.63200  0.79100  0.42300  1.0000
  O   O5        1.0  0.11800  0.70900  0.82700  1.0000
  O   O6        1.0  0.63200  0.20900  0.84100  1.0000
  O   O7        1.0  0.17300  0.29100  0.88200  1.0000
  O   O8        1.0  0.59100  0.70900  0.88200  1.0000
