data_image0
_chemical_formula_structural       La2O8Yb4
_chemical_formula_sum              "La2 O8 Yb4"
_cell_length_a       6.8024
_cell_length_b       6.8024
_cell_length_c       6.8024
_cell_angle_alpha    119.991
_cell_angle_beta     90.0148
_cell_angle_gamma    119.991

_space_group_name_H-M_alt    "P 1"
_space_group_IT_number       1

loop_
  _space_group_symop_operation_xyz
  'x, y, z'

loop_
  _atom_site_type_symbol
  _atom_site_label
  _atom_site_symmetry_multiplicity
  _atom_site_fract_x
  _atom_site_fract_y
  _atom_site_fract_z
  _atom_site_occupancy
  La  La1       1.0  0.00000  0.00000  0.00000  1.0000
  La  La2       1.0  0.75000  0.50000  0.25000  1.0000
  O   O1        1.0  0.61500  0.22900  0.38500  1.0000
  O   O2        1.0  0.15600  0.77100  0.38500  1.0000
  O   O3        1.0  0.61500  0.77100  0.38500  1.0000
  O   O4        1.0  0.13500  0.27100  0.40600  1.0000
  O   O5        1.0  0.61500  0.22900  0.84400  1.0000
  O   O6        1.0  0.13500  0.72900  0.86500  1.0000
  O   O7        1.0  0.13500  0.27100  0.86500  1.0000
  O   O8        1.0  0.59400  0.72900  0.86500  1.0000
  Yb  Yb1       1.0  0.37500  0.75000  0.12500  1.0000
  Yb  Yb2       1.0  0.37500  0.25000  0.62500  1.0000
  Yb  Yb3       1.0  0.87500  0.25000  0.62500  1.0000
  Yb  Yb4       1.0  0.37500  0.75000  0.62500  1.0000
