data_image0
_chemical_formula_structural       Ni2O8Y4
_chemical_formula_sum              "Ni2 O8 Y4"
_cell_length_a       6.57552
_cell_length_b       6.57552
_cell_length_c       6.57552
_cell_angle_alpha    121.002
_cell_angle_beta     88.2723
_cell_angle_gamma    121.002

_space_group_name_H-M_alt    "P 1"
_space_group_IT_number       1

loop_
  _space_group_symop_operation_xyz
  'x, y, z'

loop_
  _atom_site_type_symbol
  _atom_site_label
  _atom_site_symmetry_multiplicity
  _atom_site_fract_x
  _atom_site_fract_y
  _atom_site_fract_z
  _atom_site_occupancy
  Ni  Ni1       1.0  0.00000  0.00000  0.00000  1.0000
  Ni  Ni2       1.0  0.75000  0.50000  0.25000  1.0000
  O   O1        1.0  0.61600  0.75300  0.37000  1.0000
  O   O2        1.0  0.13700  0.75300  0.38400  1.0000
  O   O3        1.0  0.63000  0.24700  0.38400  1.0000
  O   O4        1.0  0.13400  0.25300  0.38700  1.0000
  O   O5        1.0  0.61600  0.24700  0.86300  1.0000
  O   O6        1.0  0.12000  0.25300  0.86600  1.0000
  O   O7        1.0  0.61300  0.74700  0.86600  1.0000
  O   O8        1.0  0.13400  0.74700  0.88000  1.0000
  Y   Y1        1.0  0.37500  0.75000  0.12500  1.0000
  Y   Y2        1.0  0.37500  0.25000  0.62500  1.0000
  Y   Y3        1.0  0.37500  0.75000  0.62500  1.0000
  Y   Y4        1.0  0.87500  0.25000  0.62500  1.0000
