data_image0
_chemical_formula_structural       K2O8Y4
_chemical_formula_sum              "K2 O8 Y4"
_cell_length_a       7.03962
_cell_length_b       7.03962
_cell_length_c       7.03962
_cell_angle_alpha    119.993
_cell_angle_beta     90.0116
_cell_angle_gamma    119.993

_space_group_name_H-M_alt    "P 1"
_space_group_IT_number       1

loop_
  _space_group_symop_operation_xyz
  'x, y, z'

loop_
  _atom_site_type_symbol
  _atom_site_label
  _atom_site_symmetry_multiplicity
  _atom_site_fract_x
  _atom_site_fract_y
  _atom_site_fract_z
  _atom_site_occupancy
  K   K1        1.0  0.00000  0.00000  0.00000  1.0000
  K   K2        1.0  0.75000  0.50000  0.25000  1.0000
  O   O1        1.0  0.19200  0.79500  0.39700  1.0000
  O   O2        1.0  0.60300  0.20500  0.39700  1.0000
  O   O3        1.0  0.60300  0.79500  0.39700  1.0000
  O   O4        1.0  0.14700  0.29500  0.44200  1.0000
  O   O5        1.0  0.60300  0.20500  0.80800  1.0000
  O   O6        1.0  0.14700  0.70500  0.85300  1.0000
  O   O7        1.0  0.14700  0.29500  0.85300  1.0000
  O   O8        1.0  0.55800  0.70500  0.85300  1.0000
  Y   Y1        1.0  0.37500  0.75000  0.12500  1.0000
  Y   Y2        1.0  0.37500  0.25000  0.62500  1.0000
  Y   Y3        1.0  0.37500  0.75000  0.62500  1.0000
  Y   Y4        1.0  0.87500  0.25000  0.62500  1.0000
