data_image0
_chemical_formula_structural       O8Pt2Ti4
_chemical_formula_sum              "O8 Pt2 Ti4"
_cell_length_a       6.13749
_cell_length_b       6.13749
_cell_length_c       6.13749
_cell_angle_alpha    119.99
_cell_angle_beta     90.0168
_cell_angle_gamma    119.99

_space_group_name_H-M_alt    "P 1"
_space_group_IT_number       1

loop_
  _space_group_symop_operation_xyz
  'x, y, z'

loop_
  _atom_site_type_symbol
  _atom_site_label
  _atom_site_symmetry_multiplicity
  _atom_site_fract_x
  _atom_site_fract_y
  _atom_site_fract_z
  _atom_site_occupancy
  O   O1        1.0  0.18000  0.78700  0.39300  1.0000
  O   O2        1.0  0.60700  0.21300  0.39300  1.0000
  O   O3        1.0  0.60700  0.78700  0.39300  1.0000
  O   O4        1.0  0.14300  0.28700  0.43000  1.0000
  O   O5        1.0  0.60700  0.21300  0.82000  1.0000
  O   O6        1.0  0.14300  0.71300  0.85700  1.0000
  O   O7        1.0  0.14300  0.28700  0.85700  1.0000
  O   O8        1.0  0.57000  0.71300  0.85700  1.0000
  Pt  Pt1       1.0  0.00000  0.00000  0.00000  1.0000
  Pt  Pt2       1.0  0.75000  0.50000  0.25000  1.0000
  Ti  Ti1       1.0  0.37500  0.75000  0.12500  1.0000
  Ti  Ti2       1.0  0.87500  0.25000  0.62500  1.0000
  Ti  Ti3       1.0  0.37500  0.25000  0.62500  1.0000
  Ti  Ti4       1.0  0.37500  0.75000  0.62500  1.0000
