data_image0
_chemical_formula_structural       O8Sc2Te4
_chemical_formula_sum              "O8 Sc2 Te4"
_cell_length_a       6.78997
_cell_length_b       6.78997
_cell_length_c       6.78997
_cell_angle_alpha    120.059
_cell_angle_beta     89.8982
_cell_angle_gamma    120.059

_space_group_name_H-M_alt    "P 1"
_space_group_IT_number       1

loop_
  _space_group_symop_operation_xyz
  'x, y, z'

loop_
  _atom_site_type_symbol
  _atom_site_label
  _atom_site_symmetry_multiplicity
  _atom_site_fract_x
  _atom_site_fract_y
  _atom_site_fract_z
  _atom_site_occupancy
  O   O1        1.0  0.12000  0.24100  0.36100  1.0000
  O   O2        1.0  0.11100  0.74100  0.37000  1.0000
  O   O3        1.0  0.62900  0.25900  0.37000  1.0000
  O   O4        1.0  0.63000  0.74100  0.37100  1.0000
  O   O5        1.0  0.12000  0.75900  0.87900  1.0000
  O   O6        1.0  0.12100  0.24100  0.88000  1.0000
  O   O7        1.0  0.63900  0.75900  0.88000  1.0000
  O   O8        1.0  0.63000  0.25900  0.88900  1.0000
  Sc  Sc1       1.0  0.00000  0.00000  0.00000  1.0000
  Sc  Sc2       1.0  0.75000  0.50000  0.25000  1.0000
  Te  Te1       1.0  0.37500  0.75000  0.12500  1.0000
  Te  Te2       1.0  0.37500  0.25000  0.62500  1.0000
  Te  Te3       1.0  0.37500  0.75000  0.62500  1.0000
  Te  Te4       1.0  0.87500  0.25000  0.62500  1.0000
