data_image0
_chemical_formula_structural       Al2In4O8
_chemical_formula_sum              "Al2 In4 O8"
_cell_length_a       6.29504
_cell_length_b       6.28834
_cell_length_c       6.28834
_cell_angle_alpha    119.955
_cell_angle_beta     90.0031
_cell_angle_gamma    120.006

_space_group_name_H-M_alt    "P 1"
_space_group_IT_number       1

loop_
  _space_group_symop_operation_xyz
  'x, y, z'

loop_
  _atom_site_type_symbol
  _atom_site_label
  _atom_site_symmetry_multiplicity
  _atom_site_fract_x
  _atom_site_fract_y
  _atom_site_fract_z
  _atom_site_occupancy
  Al  Al1       1.0  1.00000  0.00000  1.00000  1.0000
  Al  Al2       1.0  0.75000  0.50000  0.25000  1.0000
  In  In1       1.0  0.37500  0.75000  0.12500  1.0000
  In  In2       1.0  0.37500  0.25000  0.62500  1.0000
  In  In3       1.0  0.87500  0.25000  0.62500  1.0000
  In  In4       1.0  0.37500  0.75000  0.62500  1.0000
  O   O1        1.0  0.11900  0.23700  0.35600  1.0000
  O   O2        1.0  0.10600  0.73700  0.36900  1.0000
  O   O3        1.0  0.63100  0.26300  0.36900  1.0000
  O   O4        1.0  0.63100  0.73700  0.36900  1.0000
  O   O5        1.0  0.11900  0.76300  0.88100  1.0000
  O   O6        1.0  0.11900  0.23700  0.88100  1.0000
  O   O7        1.0  0.64400  0.76300  0.88100  1.0000
  O   O8        1.0  0.63100  0.26300  0.89400  1.0000
