data_image0
_chemical_formula_structural       Ce2O8Rb4
_chemical_formula_sum              "Ce2 O8 Rb4"
_cell_length_a       7.70592
_cell_length_b       7.70592
_cell_length_c       7.70592
_cell_angle_alpha    119.972
_cell_angle_beta     90.0492
_cell_angle_gamma    119.972

_space_group_name_H-M_alt    "P 1"
_space_group_IT_number       1

loop_
  _space_group_symop_operation_xyz
  'x, y, z'

loop_
  _atom_site_type_symbol
  _atom_site_label
  _atom_site_symmetry_multiplicity
  _atom_site_fract_x
  _atom_site_fract_y
  _atom_site_fract_z
  _atom_site_occupancy
  Ce  Ce1       1.0  0.00000  0.00000  0.00000  1.0000
  Ce  Ce2       1.0  0.75000  0.50000  0.25000  1.0000
  O   O1        1.0  0.11800  0.23700  0.35500  1.0000
  O   O2        1.0  0.63100  0.26300  0.36800  1.0000
  O   O3        1.0  0.10500  0.73700  0.36800  1.0000
  O   O4        1.0  0.63200  0.73700  0.36900  1.0000
  O   O5        1.0  0.11800  0.76300  0.88100  1.0000
  O   O6        1.0  0.11900  0.23700  0.88200  1.0000
  O   O7        1.0  0.64500  0.76300  0.88200  1.0000
  O   O8        1.0  0.63200  0.26300  0.89500  1.0000
  Rb  Rb1       1.0  0.37500  0.75000  0.12500  1.0000
  Rb  Rb2       1.0  0.87500  0.25000  0.62500  1.0000
  Rb  Rb3       1.0  0.37500  0.75000  0.62500  1.0000
  Rb  Rb4       1.0  0.37500  0.25000  0.62500  1.0000
