data_image0
_chemical_formula_structural       Lu2O8Pt4
_chemical_formula_sum              "Lu2 O8 Pt4"
_cell_length_a       6.46334
_cell_length_b       6.46334
_cell_length_c       6.46334
_cell_angle_alpha    120.042
_cell_angle_beta     89.9276
_cell_angle_gamma    120.042

_space_group_name_H-M_alt    "P 1"
_space_group_IT_number       1

loop_
  _space_group_symop_operation_xyz
  'x, y, z'

loop_
  _atom_site_type_symbol
  _atom_site_label
  _atom_site_symmetry_multiplicity
  _atom_site_fract_x
  _atom_site_fract_y
  _atom_site_fract_z
  _atom_site_occupancy
  Lu  Lu1       1.0  0.00000  0.00000  0.00000  1.0000
  Lu  Lu2       1.0  0.75000  0.50000  0.25000  1.0000
  O   O1        1.0  0.15400  0.76900  0.38400  1.0000
  O   O2        1.0  0.61500  0.23100  0.38400  1.0000
  O   O3        1.0  0.61600  0.76900  0.38500  1.0000
  O   O4        1.0  0.13400  0.26900  0.40400  1.0000
  O   O5        1.0  0.61600  0.23100  0.84600  1.0000
  O   O6        1.0  0.13400  0.73100  0.86500  1.0000
  O   O7        1.0  0.13500  0.26900  0.86600  1.0000
  O   O8        1.0  0.59600  0.73100  0.86600  1.0000
  Pt  Pt1       1.0  0.37500  0.75000  0.12500  1.0000
  Pt  Pt2       1.0  0.87500  0.25000  0.62500  1.0000
  Pt  Pt3       1.0  0.37500  0.75000  0.62500  1.0000
  Pt  Pt4       1.0  0.37500  0.25000  0.62500  1.0000
