data_image0
_chemical_formula_structural       As2O8Rb4
_chemical_formula_sum              "As2 O8 Rb4"
_cell_length_a       7.174
_cell_length_b       7.174
_cell_length_c       7.174
_cell_angle_alpha    120
_cell_angle_beta     90.0007
_cell_angle_gamma    120

_space_group_name_H-M_alt    "P 1"
_space_group_IT_number       1

loop_
  _space_group_symop_operation_xyz
  'x, y, z'

loop_
  _atom_site_type_symbol
  _atom_site_label
  _atom_site_symmetry_multiplicity
  _atom_site_fract_x
  _atom_site_fract_y
  _atom_site_fract_z
  _atom_site_occupancy
  As  As1       1.0  0.00000  0.00000  0.00000  1.0000
  As  As2       1.0  0.75000  0.50000  0.25000  1.0000
  O   O1        1.0  0.09800  0.19600  0.29400  1.0000
  O   O2        1.0  0.65200  0.30400  0.34800  1.0000
  O   O3        1.0  0.04410  0.69600  0.34800  1.0000
  O   O4        1.0  0.65200  0.69600  0.34800  1.0000
  O   O5        1.0  0.09800  0.80400  0.90200  1.0000
  O   O6        1.0  0.09800  0.19600  0.90200  1.0000
  O   O7        1.0  0.70600  0.80400  0.90200  1.0000
  O   O8        1.0  0.65200  0.30400  0.95600  1.0000
  Rb  Rb1       1.0  0.37500  0.75000  0.12500  1.0000
  Rb  Rb2       1.0  0.37500  0.75000  0.62500  1.0000
  Rb  Rb3       1.0  0.37500  0.25000  0.62500  1.0000
  Rb  Rb4       1.0  0.87500  0.25000  0.62500  1.0000
