data_image0
_chemical_formula_structural       Hg2O8Os4
_chemical_formula_sum              "Hg2 O8 Os4"
_cell_length_a       6.41117
_cell_length_b       6.41117
_cell_length_c       6.41117
_cell_angle_alpha    119.985
_cell_angle_beta     90.026
_cell_angle_gamma    119.985

_space_group_name_H-M_alt    "P 1"
_space_group_IT_number       1

loop_
  _space_group_symop_operation_xyz
  'x, y, z'

loop_
  _atom_site_type_symbol
  _atom_site_label
  _atom_site_symmetry_multiplicity
  _atom_site_fract_x
  _atom_site_fract_y
  _atom_site_fract_z
  _atom_site_occupancy
  Hg  Hg1       1.0  0.00000  0.00000  0.00000  1.0000
  Hg  Hg2       1.0  0.75000  0.50000  0.25000  1.0000
  O   O1        1.0  0.19500  0.79700  0.39800  1.0000
  O   O2        1.0  0.60100  0.20300  0.39800  1.0000
  O   O3        1.0  0.60200  0.79700  0.39900  1.0000
  O   O4        1.0  0.14800  0.29700  0.44500  1.0000
  O   O5        1.0  0.60200  0.20300  0.80500  1.0000
  O   O6        1.0  0.14800  0.70300  0.85100  1.0000
  O   O7        1.0  0.14900  0.29700  0.85200  1.0000
  O   O8        1.0  0.55500  0.70300  0.85200  1.0000
  Os  Os1       1.0  0.37500  0.75000  0.12500  1.0000
  Os  Os2       1.0  0.87500  0.25000  0.62500  1.0000
  Os  Os3       1.0  0.37500  0.25000  0.62500  1.0000
  Os  Os4       1.0  0.37500  0.75000  0.62500  1.0000
