data_image0
_chemical_formula_structural       Er2O8Zn4
_chemical_formula_sum              "Er2 O8 Zn4"
_cell_length_a       6.23544
_cell_length_b       6.23544
_cell_length_c       6.23544
_cell_angle_alpha    119.997
_cell_angle_beta     90.0048
_cell_angle_gamma    119.997

_space_group_name_H-M_alt    "P 1"
_space_group_IT_number       1

loop_
  _space_group_symop_operation_xyz
  'x, y, z'

loop_
  _atom_site_type_symbol
  _atom_site_label
  _atom_site_symmetry_multiplicity
  _atom_site_fract_x
  _atom_site_fract_y
  _atom_site_fract_z
  _atom_site_occupancy
  Er  Er1       1.0  0.00000  0.00000  0.00000  1.0000
  Er  Er2       1.0  0.75000  0.50000  0.25000  1.0000
  O   O1        1.0  0.61200  0.22400  0.38800  1.0000
  O   O2        1.0  0.16400  0.77600  0.38800  1.0000
  O   O3        1.0  0.61200  0.77600  0.38800  1.0000
  O   O4        1.0  0.13800  0.27600  0.41400  1.0000
  O   O5        1.0  0.61200  0.22400  0.83600  1.0000
  O   O6        1.0  0.13800  0.72400  0.86200  1.0000
  O   O7        1.0  0.13800  0.27600  0.86200  1.0000
  O   O8        1.0  0.58600  0.72400  0.86200  1.0000
  Zn  Zn1       1.0  0.37500  0.75000  0.12500  1.0000
  Zn  Zn2       1.0  0.87500  0.25000  0.62500  1.0000
  Zn  Zn3       1.0  0.37500  0.25000  0.62500  1.0000
  Zn  Zn4       1.0  0.37500  0.75000  0.62500  1.0000
