data_image0
_chemical_formula_structural       Er4O14Ti4
_chemical_formula_sum              "Er4 O14 Ti4"
_cell_length_a       7.10156
_cell_length_b       7.10156
_cell_length_c       7.10156
_cell_angle_alpha    120
_cell_angle_beta     90
_cell_angle_gamma    120

_space_group_name_H-M_alt    "P 1"
_space_group_IT_number       1

loop_
  _space_group_symop_operation_xyz
  'x, y, z'

loop_
  _atom_site_type_symbol
  _atom_site_label
  _atom_site_symmetry_multiplicity
  _atom_site_fract_x
  _atom_site_fract_y
  _atom_site_fract_z
  _atom_site_occupancy
  Er  Er1       1.0  0.00000  0.00000  0.00000  1.0000
  Er  Er2       1.0  0.50000  0.00000  0.00000  1.0000
  Er  Er3       1.0  0.50000  0.50000  0.00000  1.0000
  Er  Er4       1.0  0.50000  0.50000  0.50000  1.0000
  O   O1        1.0  0.37500  0.25000  0.12500  1.0000
  O   O2        1.0  0.33300  0.75000  0.16700  1.0000
  O   O3        1.0  0.91700  0.33500  0.16700  1.0000
  O   O4        1.0  0.91700  0.75000  0.16700  1.0000
  O   O5        1.0  0.08270  0.25000  0.41700  1.0000
  O   O6        1.0  0.66700  0.25000  0.41700  1.0000
  O   O7        1.0  0.66700  0.83500  0.41700  1.0000
  O   O8        1.0  0.33300  0.16500  0.58300  1.0000
  O   O9        1.0  0.33300  0.75000  0.58300  1.0000
  O   O10       1.0  0.91700  0.75000  0.58300  1.0000
  O   O11       1.0  0.66700  0.25000  0.83300  1.0000
  O   O12       1.0  0.08270  0.66500  0.83300  1.0000
  O   O13       1.0  0.08270  0.25000  0.83300  1.0000
  O   O14       1.0  0.62500  0.75000  0.87500  1.0000
  Ti  Ti1       1.0  0.00000  0.50000  0.00000  1.0000
  Ti  Ti2       1.0  0.00000  0.00000  0.50000  1.0000
  Ti  Ti3       1.0  0.50000  0.00000  0.50000  1.0000
  Ti  Ti4       1.0  0.00000  0.50000  0.50000  1.0000
