data_image0
_chemical_formula_structural       Ho2Mg4O8
_chemical_formula_sum              "Ho2 Mg4 O8"
_cell_length_a       6.2248
_cell_length_b       6.2248
_cell_length_c       6.2248
_cell_angle_alpha    119.993
_cell_angle_beta     90.0119
_cell_angle_gamma    119.993

_space_group_name_H-M_alt    "P 1"
_space_group_IT_number       1

loop_
  _space_group_symop_operation_xyz
  'x, y, z'

loop_
  _atom_site_type_symbol
  _atom_site_label
  _atom_site_symmetry_multiplicity
  _atom_site_fract_x
  _atom_site_fract_y
  _atom_site_fract_z
  _atom_site_occupancy
  Ho  Ho1       1.0  0.00000  0.00000  0.00000  1.0000
  Ho  Ho2       1.0  0.75000  0.50000  0.25000  1.0000
  Mg  Mg1       1.0  0.37500  0.75000  0.12500  1.0000
  Mg  Mg2       1.0  0.37500  0.25000  0.62500  1.0000
  Mg  Mg3       1.0  0.37500  0.75000  0.62500  1.0000
  Mg  Mg4       1.0  0.87500  0.25000  0.62500  1.0000
  O   O1        1.0  0.16500  0.77600  0.38800  1.0000
  O   O2        1.0  0.61200  0.22400  0.38800  1.0000
  O   O3        1.0  0.61200  0.77600  0.38800  1.0000
  O   O4        1.0  0.13800  0.27600  0.41500  1.0000
  O   O5        1.0  0.61200  0.22400  0.83500  1.0000
  O   O6        1.0  0.13800  0.72400  0.86200  1.0000
  O   O7        1.0  0.13800  0.27600  0.86200  1.0000
  O   O8        1.0  0.58500  0.72400  0.86200  1.0000
