data_image0
_chemical_formula_structural       Dy2Np4O8
_chemical_formula_sum              "Dy2 Np4 O8"
_cell_length_a       6.99547
_cell_length_b       6.99547
_cell_length_c       6.99547
_cell_angle_alpha    120.036
_cell_angle_beta     89.9378
_cell_angle_gamma    120.036

_space_group_name_H-M_alt    "P 1"
_space_group_IT_number       1

loop_
  _space_group_symop_operation_xyz
  'x, y, z'

loop_
  _atom_site_type_symbol
  _atom_site_label
  _atom_site_symmetry_multiplicity
  _atom_site_fract_x
  _atom_site_fract_y
  _atom_site_fract_z
  _atom_site_occupancy
  Dy  Dy1       1.0  0.00000  0.00000  0.00000  1.0000
  Dy  Dy2       1.0  0.75000  0.50000  0.25000  1.0000
  Np  Np1       1.0  0.37500  0.75000  0.12500  1.0000
  Np  Np2       1.0  0.37500  0.75000  0.62500  1.0000
  Np  Np3       1.0  0.37500  0.25000  0.62500  1.0000
  Np  Np4       1.0  0.87500  0.25000  0.62500  1.0000
  O   O1        1.0  0.62300  0.24700  0.37600  1.0000
  O   O2        1.0  0.12800  0.75300  0.37600  1.0000
  O   O3        1.0  0.62400  0.75300  0.37700  1.0000
  O   O4        1.0  0.12600  0.25300  0.37800  1.0000
  O   O5        1.0  0.62400  0.24700  0.87200  1.0000
  O   O6        1.0  0.12600  0.74700  0.87300  1.0000
  O   O7        1.0  0.12700  0.25300  0.87400  1.0000
  O   O8        1.0  0.62200  0.74700  0.87400  1.0000
