data_image0
_chemical_formula_structural       Cd2O8Sn4
_chemical_formula_sum              "Cd2 O8 Sn4"
_cell_length_a       6.71281
_cell_length_b       6.71281
_cell_length_c       6.71281
_cell_angle_alpha    119.995
_cell_angle_beta     90.0094
_cell_angle_gamma    119.995

_space_group_name_H-M_alt    "P 1"
_space_group_IT_number       1

loop_
  _space_group_symop_operation_xyz
  'x, y, z'

loop_
  _atom_site_type_symbol
  _atom_site_label
  _atom_site_symmetry_multiplicity
  _atom_site_fract_x
  _atom_site_fract_y
  _atom_site_fract_z
  _atom_site_occupancy
  Cd  Cd1       1.0  0.00000  0.00000  0.00000  1.0000
  Cd  Cd2       1.0  0.75000  0.50000  0.25000  1.0000
  O   O1        1.0  0.16700  0.77800  0.38900  1.0000
  O   O2        1.0  0.61100  0.22200  0.38900  1.0000
  O   O3        1.0  0.61100  0.77800  0.38900  1.0000
  O   O4        1.0  0.13900  0.27800  0.41700  1.0000
  O   O5        1.0  0.61100  0.22200  0.83300  1.0000
  O   O6        1.0  0.13900  0.72200  0.86100  1.0000
  O   O7        1.0  0.13900  0.27800  0.86100  1.0000
  O   O8        1.0  0.58300  0.72200  0.86100  1.0000
  Sn  Sn1       1.0  0.37500  0.75000  0.12500  1.0000
  Sn  Sn2       1.0  0.37500  0.25000  0.62500  1.0000
  Sn  Sn3       1.0  0.37500  0.75000  0.62500  1.0000
  Sn  Sn4       1.0  0.87500  0.25000  0.62500  1.0000
