data_image0
_chemical_formula_structural       Mg2O8Pt4
_chemical_formula_sum              "Mg2 O8 Pt4"
_cell_length_a       6.24987
_cell_length_b       6.24987
_cell_length_c       6.24987
_cell_angle_alpha    120.06
_cell_angle_beta     89.8967
_cell_angle_gamma    120.06

_space_group_name_H-M_alt    "P 1"
_space_group_IT_number       1

loop_
  _space_group_symop_operation_xyz
  'x, y, z'

loop_
  _atom_site_type_symbol
  _atom_site_label
  _atom_site_symmetry_multiplicity
  _atom_site_fract_x
  _atom_site_fract_y
  _atom_site_fract_z
  _atom_site_occupancy
  Mg  Mg1       1.0  0.00000  0.00000  0.00000  1.0000
  Mg  Mg2       1.0  0.75000  0.50000  0.25000  1.0000
  O   O1        1.0  0.15000  0.76700  0.38300  1.0000
  O   O2        1.0  0.61700  0.23300  0.38300  1.0000
  O   O3        1.0  0.61700  0.76700  0.38300  1.0000
  O   O4        1.0  0.13300  0.26700  0.40000  1.0000
  O   O5        1.0  0.61700  0.23300  0.85000  1.0000
  O   O6        1.0  0.13300  0.73300  0.86700  1.0000
  O   O7        1.0  0.60000  0.73300  0.86700  1.0000
  O   O8        1.0  0.13300  0.26700  0.86700  1.0000
  Pt  Pt1       1.0  0.37500  0.75000  0.12500  1.0000
  Pt  Pt2       1.0  0.37500  0.25000  0.62500  1.0000
  Pt  Pt3       1.0  0.37500  0.75000  0.62500  1.0000
  Pt  Pt4       1.0  0.87500  0.25000  0.62500  1.0000
