data_image0
_chemical_formula_structural       O8Pa2Tl4
_chemical_formula_sum              "O8 Pa2 Tl4"
_cell_length_a       7.28715
_cell_length_b       7.28715
_cell_length_c       7.28715
_cell_angle_alpha    119.994
_cell_angle_beta     90.0103
_cell_angle_gamma    119.994

_space_group_name_H-M_alt    "P 1"
_space_group_IT_number       1

loop_
  _space_group_symop_operation_xyz
  'x, y, z'

loop_
  _atom_site_type_symbol
  _atom_site_label
  _atom_site_symmetry_multiplicity
  _atom_site_fract_x
  _atom_site_fract_y
  _atom_site_fract_z
  _atom_site_occupancy
  O   O1        1.0  0.11600  0.23300  0.34900  1.0000
  O   O2        1.0  0.63400  0.26700  0.36600  1.0000
  O   O3        1.0  0.09870  0.73300  0.36600  1.0000
  O   O4        1.0  0.63400  0.73300  0.36600  1.0000
  O   O5        1.0  0.11600  0.76700  0.88400  1.0000
  O   O6        1.0  0.11600  0.23300  0.88400  1.0000
  O   O7        1.0  0.65100  0.76700  0.88400  1.0000
  O   O8        1.0  0.63400  0.26700  0.90100  1.0000
  Pa  Pa1       1.0  0.00000  0.00000  0.00000  1.0000
  Pa  Pa2       1.0  0.75000  0.50000  0.25000  1.0000
  Tl  Tl1       1.0  0.37500  0.75000  0.12500  1.0000
  Tl  Tl2       1.0  0.87500  0.25000  0.62500  1.0000
  Tl  Tl3       1.0  0.37500  0.75000  0.62500  1.0000
  Tl  Tl4       1.0  0.37500  0.25000  0.62500  1.0000
