data_image0
_chemical_formula_structural       Ni2O8Re4
_chemical_formula_sum              "Ni2 O8 Re4"
_cell_length_a       5.76453
_cell_length_b       5.76453
_cell_length_c       5.76453
_cell_angle_alpha    113.148
_cell_angle_beta     102.344
_cell_angle_gamma    113.148

_space_group_name_H-M_alt    "P 1"
_space_group_IT_number       1

loop_
  _space_group_symop_operation_xyz
  'x, y, z'

loop_
  _atom_site_type_symbol
  _atom_site_label
  _atom_site_symmetry_multiplicity
  _atom_site_fract_x
  _atom_site_fract_y
  _atom_site_fract_z
  _atom_site_occupancy
  Ni  Ni1       1.0  0.00000  0.00000  0.00000  1.0000
  Ni  Ni2       1.0  0.75000  0.50000  0.25000  1.0000
  O   O1        1.0  0.54400  0.20800  0.33600  1.0000
  O   O2        1.0  0.12900  0.79200  0.33600  1.0000
  O   O3        1.0  0.08650  0.29200  0.37900  1.0000
  O   O4        1.0  0.66400  0.79200  0.45600  1.0000
  O   O5        1.0  0.08650  0.70800  0.79400  1.0000
  O   O6        1.0  0.66400  0.20800  0.87100  1.0000
  O   O7        1.0  0.20600  0.29200  0.91400  1.0000
  O   O8        1.0  0.62100  0.70800  0.91400  1.0000
  Re  Re1       1.0  0.37500  0.75000  0.12500  1.0000
  Re  Re2       1.0  0.37500  0.25000  0.62500  1.0000
  Re  Re3       1.0  0.37500  0.75000  0.62500  1.0000
  Re  Re4       1.0  0.87500  0.25000  0.62500  1.0000
