data_image0
_chemical_formula_structural       O8Pm2Pr4
_chemical_formula_sum              "O8 Pm2 Pr4"
_cell_length_a       7.08369
_cell_length_b       7.08369
_cell_length_c       7.08369
_cell_angle_alpha    119.989
_cell_angle_beta     90.0184
_cell_angle_gamma    119.989

_space_group_name_H-M_alt    "P 1"
_space_group_IT_number       1

loop_
  _space_group_symop_operation_xyz
  'x, y, z'

loop_
  _atom_site_type_symbol
  _atom_site_label
  _atom_site_symmetry_multiplicity
  _atom_site_fract_x
  _atom_site_fract_y
  _atom_site_fract_z
  _atom_site_occupancy
  O   O1        1.0  0.13800  0.75900  0.37900  1.0000
  O   O2        1.0  0.62000  0.24100  0.37900  1.0000
  O   O3        1.0  0.62100  0.75900  0.38000  1.0000
  O   O4        1.0  0.12900  0.25900  0.38800  1.0000
  O   O5        1.0  0.62100  0.24100  0.86200  1.0000
  O   O6        1.0  0.12900  0.74100  0.87000  1.0000
  O   O7        1.0  0.13000  0.25900  0.87100  1.0000
  O   O8        1.0  0.61200  0.74100  0.87100  1.0000
  Pm  Pm1       1.0  0.00000  0.00000  0.00000  1.0000
  Pm  Pm2       1.0  0.75000  0.50000  0.25000  1.0000
  Pr  Pr1       1.0  0.37500  0.75000  0.12500  1.0000
  Pr  Pr2       1.0  0.37500  0.75000  0.62500  1.0000
  Pr  Pr3       1.0  0.87500  0.25000  0.62500  1.0000
  Pr  Pr4       1.0  0.37500  0.25000  0.62500  1.0000
