data_image0
_chemical_formula_structural       Al14Au6Dy2
_chemical_formula_sum              "Al14 Au6 Dy2"
_cell_length_a       8.09399
_cell_length_b       8.09399
_cell_length_c       8.44249
_cell_angle_alpha    118.644
_cell_angle_beta     90
_cell_angle_gamma    60

_space_group_name_H-M_alt    "P 1"
_space_group_IT_number       1

loop_
  _space_group_symop_operation_xyz
  'x, y, z'

loop_
  _atom_site_type_symbol
  _atom_site_label
  _atom_site_symmetry_multiplicity
  _atom_site_fract_x
  _atom_site_fract_y
  _atom_site_fract_z
  _atom_site_occupancy
  Al  Al1       1.0  0.83300  0.52000  0.08970  1.0000
  Al  Al2       1.0  0.43100  0.73700  0.08970  1.0000
  Al  Al3       1.0  0.64700  0.92200  0.08970  1.0000
  Al  Al4       1.0  0.25000  0.50000  0.25000  1.0000
  Al  Al5       1.0  0.06940  0.07770  0.41000  1.0000
  Al  Al6       1.0  0.66700  0.26300  0.41000  1.0000
  Al  Al7       1.0  0.85300  0.48000  0.41000  1.0000
  Al  Al8       1.0  0.14700  0.52000  0.59000  1.0000
  Al  Al9       1.0  0.33300  0.73700  0.59000  1.0000
  Al  Al10      1.0  0.93100  0.92200  0.59000  1.0000
  Al  Al11      1.0  0.75000  0.50000  0.75000  1.0000
  Al  Al12      1.0  0.35300  0.07770  0.91000  1.0000
  Al  Al13      1.0  0.56900  0.26300  0.91000  1.0000
  Al  Al14      1.0  0.16700  0.48000  0.91000  1.0000
  Au  Au1       1.0  0.25000  0.17600  0.25000  1.0000
  Au  Au2       1.0  0.57400  0.50000  0.25000  1.0000
  Au  Au3       1.0  0.92600  0.82400  0.25000  1.0000
  Au  Au4       1.0  0.07410  0.17600  0.75000  1.0000
  Au  Au5       1.0  0.42600  0.50000  0.75000  1.0000
  Au  Au6       1.0  0.75000  0.82400  0.75000  1.0000
  Dy  Dy1       1.0  0.00000  0.00000  0.00000  1.0000
  Dy  Dy2       1.0  0.50000  0.00000  0.50000  1.0000
