data_image0
_chemical_formula_structural       Ca2Ir2O6
_chemical_formula_sum              "Ca2 Ir2 O6"
_cell_length_a       3.18112
_cell_length_b       5.12797
_cell_length_c       7.29086
_cell_angle_alpha    90
_cell_angle_beta     90
_cell_angle_gamma    71.9303

_space_group_name_H-M_alt    "P 1"
_space_group_IT_number       1

loop_
  _space_group_symop_operation_xyz
  'x, y, z'

loop_
  _atom_site_type_symbol
  _atom_site_label
  _atom_site_symmetry_multiplicity
  _atom_site_fract_x
  _atom_site_fract_y
  _atom_site_fract_z
  _atom_site_occupancy
  Ca  Ca1       1.0  0.75200  0.49600  0.25000  1.0000
  Ca  Ca2       1.0  0.24800  0.50400  0.75000  1.0000
  Ir  Ir1       1.0  0.00000  0.00000  0.00000  1.0000
  Ir  Ir2       1.0  0.00000  0.00000  0.50000  1.0000
  O   O1        1.0  0.37200  0.25600  0.04940  1.0000
  O   O2        1.0  0.07690  0.84600  0.25000  1.0000
  O   O3        1.0  0.37200  0.25600  0.45100  1.0000
  O   O4        1.0  0.62800  0.74400  0.54900  1.0000
  O   O5        1.0  0.92300  0.15400  0.75000  1.0000
  O   O6        1.0  0.62800  0.74400  0.95100  1.0000
