data_image0
_chemical_formula_structural       Ni12Ti4
_chemical_formula_sum              "Ni12 Ti4"
_cell_length_a       5.08026
_cell_length_b       5.08007
_cell_length_c       8.2904
_cell_angle_alpha    90
_cell_angle_beta     90
_cell_angle_gamma    120.001

_space_group_name_H-M_alt    "P 1"
_space_group_IT_number       1

loop_
  _space_group_symop_operation_xyz
  'x, y, z'

loop_
  _atom_site_type_symbol
  _atom_site_label
  _atom_site_symmetry_multiplicity
  _atom_site_fract_x
  _atom_site_fract_y
  _atom_site_fract_z
  _atom_site_occupancy
  Ni  Ni1       1.0  0.50000  0.00000  0.00000  1.0000
  Ni  Ni2       1.0  0.00000  0.50000  0.00000  1.0000
  Ni  Ni3       1.0  0.50000  0.50000  0.00000  1.0000
  Ni  Ni4       1.0  0.34300  0.17100  0.25000  1.0000
  Ni  Ni5       1.0  0.82900  0.17100  0.25000  1.0000
  Ni  Ni6       1.0  0.82900  0.65700  0.25000  1.0000
  Ni  Ni7       1.0  0.50000  0.00000  0.50000  1.0000
  Ni  Ni8       1.0  0.00000  0.50000  0.50000  1.0000
  Ni  Ni9       1.0  0.50000  0.50000  0.50000  1.0000
  Ni  Ni10      1.0  0.17100  0.34300  0.75000  1.0000
  Ni  Ni11      1.0  0.17100  0.82900  0.75000  1.0000
  Ni  Ni12      1.0  0.65700  0.82900  0.75000  1.0000
  Ti  Ti1       1.0  0.00000  0.00000  0.00000  1.0000
  Ti  Ti2       1.0  0.33300  0.66700  0.25000  1.0000
  Ti  Ti3       1.0  0.00000  0.00000  0.50000  1.0000
  Ti  Ti4       1.0  0.66700  0.33300  0.75000  1.0000
