data_image0
_chemical_formula_structural       O12Rh2Sm2Sr6
_chemical_formula_sum              "O12 Rh2 Sm2 Sr6"
_cell_length_a       6.82331
_cell_length_b       6.82331
_cell_length_c       6.82331
_cell_angle_alpha    91.6306
_cell_angle_beta     91.6306
_cell_angle_gamma    91.6306

_space_group_name_H-M_alt    "P 1"
_space_group_IT_number       1

loop_
  _space_group_symop_operation_xyz
  'x, y, z'

loop_
  _atom_site_type_symbol
  _atom_site_label
  _atom_site_symmetry_multiplicity
  _atom_site_fract_x
  _atom_site_fract_y
  _atom_site_fract_z
  _atom_site_occupancy
  O   O1        1.0  0.91500  0.70700  0.04890  1.0000
  O   O2        1.0  0.29300  0.95100  0.08490  1.0000
  O   O3        1.0  0.41500  0.54900  0.20700  1.0000
  O   O4        1.0  0.95100  0.08490  0.29300  1.0000
  O   O5        1.0  0.54900  0.20700  0.41500  1.0000
  O   O6        1.0  0.79300  0.58500  0.45100  1.0000
  O   O7        1.0  0.20700  0.41500  0.54900  1.0000
  O   O8        1.0  0.45100  0.79300  0.58500  1.0000
  O   O9        1.0  0.04890  0.91500  0.70700  1.0000
  O   O10       1.0  0.58500  0.45100  0.79300  1.0000
  O   O11       1.0  0.70700  0.04890  0.91500  1.0000
  O   O12       1.0  0.08490  0.29300  0.95100  1.0000
  Rh  Rh1       1.0  0.00000  0.00000  0.00000  1.0000
  Rh  Rh2       1.0  0.50000  0.50000  0.50000  1.0000
  Sm  Sm1       1.0  0.25000  0.25000  0.25000  1.0000
  Sm  Sm2       1.0  0.75000  0.75000  0.75000  1.0000
  Sr  Sr1       1.0  0.75000  0.38000  0.12000  1.0000
  Sr  Sr2       1.0  0.62000  0.88000  0.25000  1.0000
  Sr  Sr3       1.0  0.12000  0.75000  0.38000  1.0000
  Sr  Sr4       1.0  0.88000  0.25000  0.62000  1.0000
  Sr  Sr5       1.0  0.38000  0.12000  0.75000  1.0000
  Sr  Sr6       1.0  0.25000  0.62000  0.88000  1.0000
