data_image0
_chemical_formula_structural       Al4Rh6
_chemical_formula_sum              "Al4 Rh6"
_cell_length_a       6.3465
_cell_length_b       6.3465
_cell_length_c       5.64041
_cell_angle_alpha    124.235
_cell_angle_beta     55.7647
_cell_angle_gamma    120

_space_group_name_H-M_alt    "P 1"
_space_group_IT_number       1

loop_
  _space_group_symop_operation_xyz
  'x, y, z'

loop_
  _atom_site_type_symbol
  _atom_site_label
  _atom_site_symmetry_multiplicity
  _atom_site_fract_x
  _atom_site_fract_y
  _atom_site_fract_z
  _atom_site_occupancy
  Al  Al1       1.0  0.60300  0.39700  0.19000  1.0000
  Al  Al2       1.0  0.89700  0.10300  0.31000  1.0000
  Al  Al3       1.0  0.10300  0.89700  0.69000  1.0000
  Al  Al4       1.0  0.39700  0.60300  0.81000  1.0000
  Rh  Rh1       1.0  0.98700  0.48700  0.25000  1.0000
  Rh  Rh2       1.0  0.25000  0.01320  0.25000  1.0000
  Rh  Rh3       1.0  0.51300  0.75000  0.25000  1.0000
  Rh  Rh4       1.0  0.48700  0.25000  0.75000  1.0000
  Rh  Rh5       1.0  0.75000  0.98700  0.75000  1.0000
  Rh  Rh6       1.0  0.01320  0.51300  0.75000  1.0000
