data_image0
_chemical_formula_structural       Li2Nb2O6
_chemical_formula_sum              "Li2 Nb2 O6"
_cell_length_a       5.20319
_cell_length_b       5.20319
_cell_length_c       5.45634
_cell_angle_alpha    118.477
_cell_angle_beta     118.477
_cell_angle_gamma    60

_space_group_name_H-M_alt    "P 1"
_space_group_IT_number       1

loop_
  _space_group_symop_operation_xyz
  'x, y, z'

loop_
  _atom_site_type_symbol
  _atom_site_label
  _atom_site_symmetry_multiplicity
  _atom_site_fract_x
  _atom_site_fract_y
  _atom_site_fract_z
  _atom_site_occupancy
  Li  Li1       1.0  0.75000  0.75000  0.25000  1.0000
  Li  Li2       1.0  0.25000  0.25000  0.75000  1.0000
  Nb  Nb1       1.0  0.00000  0.00000  0.00000  1.0000
  Nb  Nb2       1.0  0.50000  0.50000  0.50000  1.0000
  O   O1        1.0  0.75000  0.12300  0.25000  1.0000
  O   O2        1.0  0.12300  0.37700  0.25000  1.0000
  O   O3        1.0  0.37700  0.75000  0.25000  1.0000
  O   O4        1.0  0.62300  0.25000  0.75000  1.0000
  O   O5        1.0  0.87700  0.62300  0.75000  1.0000
  O   O6        1.0  0.25000  0.87700  0.75000  1.0000
