data_image0
_chemical_formula_structural       Ni9Tm3
_chemical_formula_sum              "Ni9 Tm3"
_cell_length_a       4.90761
_cell_length_b       4.90761
_cell_length_c       8.51753
_cell_angle_alpha    90
_cell_angle_beta     73.2564
_cell_angle_gamma    120

_space_group_name_H-M_alt    "P 1"
_space_group_IT_number       1

loop_
  _space_group_symop_operation_xyz
  'x, y, z'

loop_
  _atom_site_type_symbol
  _atom_site_label
  _atom_site_symmetry_multiplicity
  _atom_site_fract_x
  _atom_site_fract_y
  _atom_site_fract_z
  _atom_site_occupancy
  Ni  Ni1       1.0  0.66700  0.33300  0.00000  1.0000
  Ni  Ni2       1.0  0.33300  0.66700  0.00029  1.0000
  Ni  Ni3       1.0  0.83400  0.41700  0.24700  1.0000
  Ni  Ni4       1.0  0.33600  0.41700  0.24700  1.0000
  Ni  Ni5       1.0  0.33600  0.91900  0.24700  1.0000
  Ni  Ni6       1.0  0.00000  0.50000  0.50000  1.0000
  Ni  Ni7       1.0  0.66400  0.08100  0.75300  1.0000
  Ni  Ni8       1.0  0.66400  0.58300  0.75300  1.0000
  Ni  Ni9       1.0  0.16600  0.58300  0.75300  1.0000
  Tm  Tm1       1.0  0.00000  0.00000  0.00000  1.0000
  Tm  Tm2       1.0  0.72100  0.86000  0.41900  1.0000
  Tm  Tm3       1.0  0.27900  0.14000  0.58100  1.0000
