data_image0
_chemical_formula_structural       C8H4Mn2O8P2
_chemical_formula_sum              "C8 H4 Mn2 O8 P2"
_cell_length_a       6.61487
_cell_length_b       6.88374
_cell_length_c       8.96417
_cell_angle_alpha    110.569
_cell_angle_beta     91.8395
_cell_angle_gamma    115.755

_space_group_name_H-M_alt    "P 1"
_space_group_IT_number       1

loop_
  _space_group_symop_operation_xyz
  'x, y, z'

loop_
  _atom_site_type_symbol
  _atom_site_label
  _atom_site_symmetry_multiplicity
  _atom_site_fract_x
  _atom_site_fract_y
  _atom_site_fract_z
  _atom_site_occupancy
  C   C1        1.0  0.38500  0.32400  0.17000  1.0000
  C   C2        1.0  0.80000  0.06500  0.23300  1.0000
  C   C3        1.0  0.12500  0.50100  0.31600  1.0000
  C   C4        1.0  0.21200  0.20300  0.40100  1.0000
  C   C5        1.0  0.78800  0.79700  0.59900  1.0000
  C   C6        1.0  0.87500  0.49900  0.68400  1.0000
  C   C7        1.0  0.20000  0.93500  0.76700  1.0000
  C   C8        1.0  0.61500  0.67600  0.83000  1.0000
  H   H1        1.0  0.23400  0.80000  0.05590  1.0000
  H   H2        1.0  0.89100  0.65300  0.08860  1.0000
  H   H3        1.0  0.10900  0.34700  0.91100  1.0000
  H   H4        1.0  0.76600  0.20000  0.94400  1.0000
  Mn  Mn1       1.0  0.10000  0.21000  0.21600  1.0000
  Mn  Mn2       1.0  0.90000  0.79000  0.78400  1.0000
  O   O1        1.0  0.56500  0.39200  0.13900  1.0000
  O   O2        1.0  0.60900  0.97300  0.24100  1.0000
  O   O3        1.0  0.13800  0.68600  0.37900  1.0000
  O   O4        1.0  0.71100  0.79600  0.48100  1.0000
  O   O5        1.0  0.28900  0.20400  0.51900  1.0000
  O   O6        1.0  0.86200  0.31400  0.62100  1.0000
  O   O7        1.0  0.39100  0.02660  0.75900  1.0000
  O   O8        1.0  0.43500  0.60800  0.86100  1.0000
  P   P1        1.0  0.03940  0.83400  0.04380  1.0000
  P   P2        1.0  0.96100  0.16600  0.95600  1.0000
