data_image0
_chemical_formula_structural       Ni4Ru6
_chemical_formula_sum              "Ni4 Ru6"
_cell_length_a       6.30376
_cell_length_b       6.30376
_cell_length_c       5.38594
_cell_angle_alpha    125.817
_cell_angle_beta     54.1825
_cell_angle_gamma    120

_space_group_name_H-M_alt    "P 1"
_space_group_IT_number       1

loop_
  _space_group_symop_operation_xyz
  'x, y, z'

loop_
  _atom_site_type_symbol
  _atom_site_label
  _atom_site_symmetry_multiplicity
  _atom_site_fract_x
  _atom_site_fract_y
  _atom_site_fract_z
  _atom_site_occupancy
  Ni  Ni1       1.0  0.59300  0.40700  0.22200  1.0000
  Ni  Ni2       1.0  0.90700  0.09280  0.27800  1.0000
  Ni  Ni3       1.0  0.09280  0.90700  0.72200  1.0000
  Ni  Ni4       1.0  0.40700  0.59300  0.77800  1.0000
  Ru  Ru1       1.0  0.25000  0.00245  0.25000  1.0000
  Ru  Ru2       1.0  0.99800  0.49800  0.25000  1.0000
  Ru  Ru3       1.0  0.50200  0.75000  0.25000  1.0000
  Ru  Ru4       1.0  0.49800  0.25000  0.75000  1.0000
  Ru  Ru5       1.0  0.00245  0.50200  0.75000  1.0000
  Ru  Ru6       1.0  0.75000  0.99800  0.75000  1.0000
