data_image0
_chemical_formula_structural       EuGa2Mg2
_chemical_formula_sum              "Eu1 Ga2 Mg2"
_cell_length_a       4.45819
_cell_length_b       4.45819
_cell_length_c       6.63412
_cell_angle_alpha    109.634
_cell_angle_beta     109.634
_cell_angle_gamma    90

_space_group_name_H-M_alt    "P 1"
_space_group_IT_number       1

loop_
  _space_group_symop_operation_xyz
  'x, y, z'

loop_
  _atom_site_type_symbol
  _atom_site_label
  _atom_site_symmetry_multiplicity
  _atom_site_fract_x
  _atom_site_fract_y
  _atom_site_fract_z
  _atom_site_occupancy
  Eu  Eu1       1.0  0.00000  0.00000  0.00000  1.0000
  Ga  Ga1       1.0  0.60600  0.60600  0.21200  1.0000
  Ga  Ga2       1.0  0.39400  0.39400  0.78800  1.0000
  Mg  Mg1       1.0  0.75000  0.25000  0.50000  1.0000
  Mg  Mg2       1.0  0.25000  0.75000  0.50000  1.0000
