data_image0
_chemical_formula_structural       C2CdMgO6
_chemical_formula_sum              "C2 Cd1 Mg1 O6"
_cell_length_a       4.79852
_cell_length_b       4.79852
_cell_length_c       5.81946
_cell_angle_alpha    114.348
_cell_angle_beta     65.6517
_cell_angle_gamma    120

_space_group_name_H-M_alt    "P 1"
_space_group_IT_number       1

loop_
  _space_group_symop_operation_xyz
  'x, y, z'

loop_
  _atom_site_type_symbol
  _atom_site_label
  _atom_site_symmetry_multiplicity
  _atom_site_fract_x
  _atom_site_fract_y
  _atom_site_fract_z
  _atom_site_occupancy
  C   C1        1.0  0.24500  0.75500  0.26500  1.0000
  C   C2        1.0  0.75500  0.24500  0.73500  1.0000
  Cd  Cd1       1.0  0.00000  0.00000  0.00000  1.0000
  Mg  Mg1       1.0  0.50000  0.50000  0.50000  1.0000
  O   O1        1.0  0.28000  0.03950  0.26300  1.0000
  O   O2        1.0  0.96000  0.50400  0.26300  1.0000
  O   O3        1.0  0.49600  0.72000  0.26300  1.0000
  O   O4        1.0  0.50400  0.28000  0.73700  1.0000
  O   O5        1.0  0.03950  0.49600  0.73700  1.0000
  O   O6        1.0  0.72000  0.96000  0.73700  1.0000
