data_image0
_chemical_formula_structural       Mg4W6
_chemical_formula_sum              "Mg4 W6"
_cell_length_a       7.9911
_cell_length_b       7.9911
_cell_length_c       5.46387
_cell_angle_alpha    136.993
_cell_angle_beta     43.0072
_cell_angle_gamma    120

_space_group_name_H-M_alt    "P 1"
_space_group_IT_number       1

loop_
  _space_group_symop_operation_xyz
  'x, y, z'

loop_
  _atom_site_type_symbol
  _atom_site_label
  _atom_site_symmetry_multiplicity
  _atom_site_fract_x
  _atom_site_fract_y
  _atom_site_fract_z
  _atom_site_occupancy
  Mg  Mg1       1.0  0.62500  0.37500  0.12600  1.0000
  Mg  Mg2       1.0  0.87500  0.12500  0.37400  1.0000
  Mg  Mg3       1.0  0.12500  0.87500  0.62600  1.0000
  Mg  Mg4       1.0  0.37500  0.62500  0.87400  1.0000
  W   W1        1.0  0.25000  0.08110  0.25000  1.0000
  W   W2        1.0  0.58100  0.75000  0.25000  1.0000
  W   W3        1.0  0.91900  0.41900  0.25000  1.0000
  W   W4        1.0  0.08110  0.58100  0.75000  1.0000
  W   W5        1.0  0.41900  0.25000  0.75000  1.0000
  W   W6        1.0  0.75000  0.91900  0.75000  1.0000
