data_image0
_chemical_formula_structural       H9La4
_chemical_formula_sum              "H9 La4"
_cell_length_a       5.56931
_cell_length_b       5.56931
_cell_length_c       6.85515
_cell_angle_alpha    113.967
_cell_angle_beta     113.967
_cell_angle_gamma    90

_space_group_name_H-M_alt    "P 1"
_space_group_IT_number       1

loop_
  _space_group_symop_operation_xyz
  'x, y, z'

loop_
  _atom_site_type_symbol
  _atom_site_label
  _atom_site_symmetry_multiplicity
  _atom_site_fract_x
  _atom_site_fract_y
  _atom_site_fract_z
  _atom_site_occupancy
  H   H1        1.0  0.00000  0.00000  0.00000  1.0000
  H   H2        1.0  0.38600  0.38600  0.25300  1.0000
  H   H3        1.0  0.86800  0.38600  0.25300  1.0000
  H   H4        1.0  0.38600  0.86800  0.25300  1.0000
  H   H5        1.0  0.86800  0.86800  0.25300  1.0000
  H   H6        1.0  0.13200  0.13200  0.74700  1.0000
  H   H7        1.0  0.61400  0.13200  0.74700  1.0000
  H   H8        1.0  0.13200  0.61400  0.74700  1.0000
  H   H9        1.0  0.61400  0.61400  0.74700  1.0000
  La  La1       1.0  0.50000  0.00000  0.00000  1.0000
  La  La2       1.0  0.00000  0.50000  0.00000  1.0000
  La  La3       1.0  0.24600  0.24600  0.49100  1.0000
  La  La4       1.0  0.75400  0.75400  0.50900  1.0000
