data_image0
_chemical_formula_structural       Cs4Mg6
_chemical_formula_sum              "Cs4 Mg6"
_cell_length_a       10.7983
_cell_length_b       10.7983
_cell_length_c       7.98386
_cell_angle_alpha    132.552
_cell_angle_beta     47.4482
_cell_angle_gamma    120

_space_group_name_H-M_alt    "P 1"
_space_group_IT_number       1

loop_
  _space_group_symop_operation_xyz
  'x, y, z'

loop_
  _atom_site_type_symbol
  _atom_site_label
  _atom_site_symmetry_multiplicity
  _atom_site_fract_x
  _atom_site_fract_y
  _atom_site_fract_z
  _atom_site_occupancy
  Cs  Cs1       1.0  0.62300  0.37700  0.13000  1.0000
  Cs  Cs2       1.0  0.87700  0.12300  0.37000  1.0000
  Cs  Cs3       1.0  0.12300  0.87700  0.63000  1.0000
  Cs  Cs4       1.0  0.37700  0.62300  0.87000  1.0000
  Mg  Mg1       1.0  0.56900  0.75000  0.25000  1.0000
  Mg  Mg2       1.0  0.25000  0.06900  0.25000  1.0000
  Mg  Mg3       1.0  0.93100  0.43100  0.25000  1.0000
  Mg  Mg4       1.0  0.06900  0.56900  0.75000  1.0000
  Mg  Mg5       1.0  0.75000  0.93100  0.75000  1.0000
  Mg  Mg6       1.0  0.43100  0.25000  0.75000  1.0000
