data_image0
_chemical_formula_structural       Ba3O9Re2
_chemical_formula_sum              "Ba3 O9 Re2"
_cell_length_a       5.71907
_cell_length_b       5.71907
_cell_length_c       7.66203
_cell_angle_alpha    111.914
_cell_angle_beta     111.914
_cell_angle_gamma    60

_space_group_name_H-M_alt    "P 1"
_space_group_IT_number       1

loop_
  _space_group_symop_operation_xyz
  'x, y, z'

loop_
  _atom_site_type_symbol
  _atom_site_label
  _atom_site_symmetry_multiplicity
  _atom_site_fract_x
  _atom_site_fract_y
  _atom_site_fract_z
  _atom_site_occupancy
  Ba  Ba1       1.0  0.00000  0.00000  0.00000  1.0000
  Ba  Ba2       1.0  0.78900  0.78900  0.36600  1.0000
  Ba  Ba3       1.0  0.21100  0.21100  0.63400  1.0000
  O   O1        1.0  0.50000  0.00000  0.00000  1.0000
  O   O2        1.0  0.00000  0.50000  0.00000  1.0000
  O   O3        1.0  0.50000  0.50000  0.00000  1.0000
  O   O4        1.0  0.27900  0.75800  0.31600  1.0000
  O   O5        1.0  0.27900  0.27900  0.31600  1.0000
  O   O6        1.0  0.75800  0.27900  0.31600  1.0000
  O   O7        1.0  0.24200  0.72100  0.68400  1.0000
  O   O8        1.0  0.72100  0.72100  0.68400  1.0000
  O   O9        1.0  0.72100  0.24200  0.68400  1.0000
  Re  Re1       1.0  0.39200  0.39200  0.17600  1.0000
  Re  Re2       1.0  0.60800  0.60800  0.82400  1.0000
