data_image0
_chemical_formula_structural       O8Th2U4
_chemical_formula_sum              "O8 Th2 U4"
_cell_length_a       7.14848
_cell_length_b       7.14848
_cell_length_c       7.14848
_cell_angle_alpha    119.993
_cell_angle_beta     90.0116
_cell_angle_gamma    119.993

_space_group_name_H-M_alt    "P 1"
_space_group_IT_number       1

loop_
  _space_group_symop_operation_xyz
  'x, y, z'

loop_
  _atom_site_type_symbol
  _atom_site_label
  _atom_site_symmetry_multiplicity
  _atom_site_fract_x
  _atom_site_fract_y
  _atom_site_fract_z
  _atom_site_occupancy
  O   O1        1.0  0.13900  0.76000  0.38000  1.0000
  O   O2        1.0  0.62000  0.24000  0.38000  1.0000
  O   O3        1.0  0.62000  0.76000  0.38000  1.0000
  O   O4        1.0  0.13000  0.26000  0.38900  1.0000
  O   O5        1.0  0.62000  0.24000  0.86100  1.0000
  O   O6        1.0  0.13000  0.74000  0.87000  1.0000
  O   O7        1.0  0.13000  0.26000  0.87000  1.0000
  O   O8        1.0  0.61100  0.74000  0.87000  1.0000
  Th  Th1       1.0  0.00000  0.00000  0.00000  1.0000
  Th  Th2       1.0  0.75000  0.50000  0.25000  1.0000
  U   U1        1.0  0.37500  0.75000  0.12500  1.0000
  U   U2        1.0  0.37500  0.75000  0.62500  1.0000
  U   U3        1.0  0.37500  0.25000  0.62500  1.0000
  U   U4        1.0  0.87500  0.25000  0.62500  1.0000
