data_image0
_chemical_formula_structural       Ag2K4O8
_chemical_formula_sum              "Ag2 K4 O8"
_cell_length_a       7.07375
_cell_length_b       7.07375
_cell_length_c       7.07375
_cell_angle_alpha    119.97
_cell_angle_beta     90.0519
_cell_angle_gamma    119.97

_space_group_name_H-M_alt    "P 1"
_space_group_IT_number       1

loop_
  _space_group_symop_operation_xyz
  'x, y, z'

loop_
  _atom_site_type_symbol
  _atom_site_label
  _atom_site_symmetry_multiplicity
  _atom_site_fract_x
  _atom_site_fract_y
  _atom_site_fract_z
  _atom_site_occupancy
  Ag  Ag1       1.0  0.00000  0.00000  0.00000  1.0000
  Ag  Ag2       1.0  0.75000  0.50000  0.25000  1.0000
  K   K1        1.0  0.37500  0.75000  0.12500  1.0000
  K   K2        1.0  0.87500  0.25000  0.62500  1.0000
  K   K3        1.0  0.37500  0.75000  0.62500  1.0000
  K   K4        1.0  0.37500  0.25000  0.62500  1.0000
  O   O1        1.0  0.11100  0.22300  0.33400  1.0000
  O   O2        1.0  0.63900  0.27700  0.36100  1.0000
  O   O3        1.0  0.08350  0.72300  0.36100  1.0000
  O   O4        1.0  0.63900  0.72300  0.36100  1.0000
  O   O5        1.0  0.11100  0.77700  0.88900  1.0000
  O   O6        1.0  0.11100  0.22300  0.88900  1.0000
  O   O7        1.0  0.66600  0.77700  0.88900  1.0000
  O   O8        1.0  0.63900  0.27700  0.91600  1.0000
