data_image0
_chemical_formula_structural       C2K4O6
_chemical_formula_sum              "C2 K4 O6"
_cell_length_a       5.63829
_cell_length_b       5.71531
_cell_length_c       6.78661
_cell_angle_alpha    94.3715
_cell_angle_beta     98.8895
_cell_angle_gamma    60.4448

_space_group_name_H-M_alt    "P 1"
_space_group_IT_number       1

loop_
  _space_group_symop_operation_xyz
  'x, y, z'

loop_
  _atom_site_type_symbol
  _atom_site_label
  _atom_site_symmetry_multiplicity
  _atom_site_fract_x
  _atom_site_fract_y
  _atom_site_fract_z
  _atom_site_occupancy
  C   C1        1.0  0.66800  0.66500  0.25000  1.0000
  C   C2        1.0  0.33200  0.33500  0.75000  1.0000
  K   K1        1.0  0.00000  0.00000  0.00000  1.0000
  K   K2        1.0  0.33400  0.33100  0.25000  1.0000
  K   K3        1.0  0.00000  0.00000  0.50000  1.0000
  K   K4        1.0  0.66600  0.66900  0.75000  1.0000
  O   O1        1.0  0.78300  0.79500  0.19800  1.0000
  O   O2        1.0  0.79800  0.40300  0.25000  1.0000
  O   O3        1.0  0.42200  0.79500  0.30200  1.0000
  O   O4        1.0  0.57800  0.20500  0.69800  1.0000
  O   O5        1.0  0.20200  0.59700  0.75000  1.0000
  O   O6        1.0  0.21700  0.20500  0.80200  1.0000
