data_image0
_chemical_formula_structural       B16Er4Ni4
_chemical_formula_sum              "B16 Er4 Ni4"
_cell_length_a       6.78973
_cell_length_b       6.78973
_cell_length_c       6.78973
_cell_angle_alpha    102.69
_cell_angle_beta     112.965
_cell_angle_gamma    112.965

_space_group_name_H-M_alt    "P 1"
_space_group_IT_number       1

loop_
  _space_group_symop_operation_xyz
  'x, y, z'

loop_
  _atom_site_type_symbol
  _atom_site_label
  _atom_site_symmetry_multiplicity
  _atom_site_fract_x
  _atom_site_fract_y
  _atom_site_fract_z
  _atom_site_occupancy
  B   B1        1.0  0.83600  0.72500  0.11100  1.0000
  B   B2        1.0  0.38600  0.27500  0.11100  1.0000
  B   B3        1.0  0.00000  0.58000  0.11400  1.0000
  B   B4        1.0  0.53400  0.11400  0.11400  1.0000
  B   B5        1.0  0.16400  0.88900  0.27500  1.0000
  B   B6        1.0  0.38600  0.11100  0.27500  1.0000
  B   B7        1.0  0.00000  0.88600  0.42000  1.0000
  B   B8        1.0  0.53400  0.42000  0.42000  1.0000
  B   B9        1.0  0.00000  0.11400  0.58000  1.0000
  B   B10       1.0  0.46600  0.58000  0.58000  1.0000
  B   B11       1.0  0.61400  0.88900  0.72500  1.0000
  B   B12       1.0  0.83600  0.11100  0.72500  1.0000
  B   B13       1.0  0.00000  0.42000  0.88600  1.0000
  B   B14       1.0  0.46600  0.88600  0.88600  1.0000
  B   B15       1.0  0.16400  0.27500  0.88900  1.0000
  B   B16       1.0  0.61400  0.72500  0.88900  1.0000
  Er  Er1       1.0  0.00000  0.20300  0.20300  1.0000
  Er  Er2       1.0  0.50000  0.75000  0.25000  1.0000
  Er  Er3       1.0  0.50000  0.25000  0.75000  1.0000
  Er  Er4       1.0  0.00000  0.79700  0.79700  1.0000
  Ni  Ni1       1.0  0.77100  0.50000  0.27100  1.0000
  Ni  Ni2       1.0  0.22900  0.72900  0.50000  1.0000
  Ni  Ni3       1.0  0.77100  0.27100  0.50000  1.0000
  Ni  Ni4       1.0  0.22900  0.50000  0.72900  1.0000
