data_image0
_chemical_formula_structural       Hg2O8Rb4
_chemical_formula_sum              "Hg2 O8 Rb4"
_cell_length_a       7.42967
_cell_length_b       7.42967
_cell_length_c       7.42967
_cell_angle_alpha    119.978
_cell_angle_beta     90.0374
_cell_angle_gamma    119.978

_space_group_name_H-M_alt    "P 1"
_space_group_IT_number       1

loop_
  _space_group_symop_operation_xyz
  'x, y, z'

loop_
  _atom_site_type_symbol
  _atom_site_label
  _atom_site_symmetry_multiplicity
  _atom_site_fract_x
  _atom_site_fract_y
  _atom_site_fract_z
  _atom_site_occupancy
  Hg  Hg1       1.0  0.00000  0.00000  0.00000  1.0000
  Hg  Hg2       1.0  0.75000  0.50000  0.25000  1.0000
  O   O1        1.0  0.11200  0.22400  0.33600  1.0000
  O   O2        1.0  0.63800  0.27600  0.36200  1.0000
  O   O3        1.0  0.08600  0.72400  0.36200  1.0000
  O   O4        1.0  0.63800  0.72400  0.36200  1.0000
  O   O5        1.0  0.11200  0.77600  0.88800  1.0000
  O   O6        1.0  0.11200  0.22400  0.88800  1.0000
  O   O7        1.0  0.66400  0.77600  0.88800  1.0000
  O   O8        1.0  0.63800  0.27600  0.91400  1.0000
  Rb  Rb1       1.0  0.37500  0.75000  0.12500  1.0000
  Rb  Rb2       1.0  0.37500  0.25000  0.62500  1.0000
  Rb  Rb3       1.0  0.87500  0.25000  0.62500  1.0000
  Rb  Rb4       1.0  0.37500  0.75000  0.62500  1.0000
