data_image0
_chemical_formula_structural       Be4Ge2O14Pr4
_chemical_formula_sum              "Be4 Ge2 O14 Pr4"
_cell_length_a       7.60291
_cell_length_b       7.60291
_cell_length_c       4.90447
_cell_angle_alpha    90
_cell_angle_beta     90
_cell_angle_gamma    90

_space_group_name_H-M_alt    "P 1"
_space_group_IT_number       1

loop_
  _space_group_symop_operation_xyz
  'x, y, z'

loop_
  _atom_site_type_symbol
  _atom_site_label
  _atom_site_symmetry_multiplicity
  _atom_site_fract_x
  _atom_site_fract_y
  _atom_site_fract_z
  _atom_site_occupancy
  Be  Be1       1.0  0.36600  0.13400  0.04040  1.0000
  Be  Be2       1.0  0.63400  0.86600  0.04040  1.0000
  Be  Be3       1.0  0.86600  0.36600  0.96000  1.0000
  Be  Be4       1.0  0.13400  0.63400  0.96000  1.0000
  Ge  Ge1       1.0  0.00000  0.00000  0.00000  1.0000
  Ge  Ge2       1.0  0.50000  0.50000  0.00000  1.0000
  O   O1        1.0  0.50000  0.00000  0.16700  1.0000
  O   O2        1.0  0.17400  0.07730  0.20500  1.0000
  O   O3        1.0  0.42300  0.32600  0.20500  1.0000
  O   O4        1.0  0.57700  0.67400  0.20500  1.0000
  O   O5        1.0  0.82600  0.92300  0.20500  1.0000
  O   O6        1.0  0.85800  0.35800  0.28100  1.0000
  O   O7        1.0  0.14200  0.64200  0.28100  1.0000
  O   O8        1.0  0.35800  0.14200  0.71900  1.0000
  O   O9        1.0  0.64200  0.85800  0.71900  1.0000
  O   O10       1.0  0.92300  0.17400  0.79500  1.0000
  O   O11       1.0  0.67400  0.42300  0.79500  1.0000
  O   O12       1.0  0.32600  0.57700  0.79500  1.0000
  O   O13       1.0  0.07730  0.82600  0.79500  1.0000
  O   O14       1.0  0.00000  0.50000  0.83300  1.0000
  Pr  Pr1       1.0  0.15900  0.34100  0.49600  1.0000
  Pr  Pr2       1.0  0.84100  0.65900  0.49600  1.0000
  Pr  Pr3       1.0  0.65900  0.15900  0.50400  1.0000
  Pr  Pr4       1.0  0.34100  0.84100  0.50400  1.0000
