data_image0
_chemical_formula_structural       Ba4Cu6Na2O12
_chemical_formula_sum              "Ba4 Cu6 Na2 O12"
_cell_length_a       7.05317
_cell_length_b       7.05317
_cell_length_c       8.34643
_cell_angle_alpha    107.243
_cell_angle_beta     107.243
_cell_angle_gamma    107.364

_space_group_name_H-M_alt    "P 1"
_space_group_IT_number       1

loop_
  _space_group_symop_operation_xyz
  'x, y, z'

loop_
  _atom_site_type_symbol
  _atom_site_label
  _atom_site_symmetry_multiplicity
  _atom_site_fract_x
  _atom_site_fract_y
  _atom_site_fract_z
  _atom_site_occupancy
  Ba  Ba1       1.0  0.77000  0.23000  0.00000  1.0000
  Ba  Ba2       1.0  0.23000  0.77000  0.00000  1.0000
  Ba  Ba3       1.0  0.75000  0.25000  0.50000  1.0000
  Ba  Ba4       1.0  0.25000  0.75000  0.50000  1.0000
  Cu  Cu1       1.0  0.31000  0.31000  0.00000  1.0000
  Cu  Cu2       1.0  0.69000  0.69000  0.00000  1.0000
  Cu  Cu3       1.0  0.29800  0.29800  0.29500  1.0000
  Cu  Cu4       1.0  0.99600  0.99600  0.29500  1.0000
  Cu  Cu5       1.0  0.00374  0.00374  0.70500  1.0000
  Cu  Cu6       1.0  0.70200  0.70200  0.70500  1.0000
  Na  Na1       1.0  0.66900  0.66900  0.33800  1.0000
  Na  Na2       1.0  0.33100  0.33100  0.66200  1.0000
  O   O1        1.0  0.50400  0.27600  0.18800  1.0000
  O   O2        1.0  0.27600  0.50400  0.18800  1.0000
  O   O3        1.0  0.91200  0.68500  0.18800  1.0000
  O   O4        1.0  0.68500  0.91200  0.18800  1.0000
  O   O5        1.0  0.30500  0.07150  0.37600  1.0000
  O   O6        1.0  0.07150  0.30500  0.37600  1.0000
  O   O7        1.0  0.92800  0.69500  0.62400  1.0000
  O   O8        1.0  0.69500  0.92800  0.62400  1.0000
  O   O9        1.0  0.31500  0.08810  0.81200  1.0000
  O   O10       1.0  0.08810  0.31500  0.81200  1.0000
  O   O11       1.0  0.72400  0.49600  0.81200  1.0000
  O   O12       1.0  0.49600  0.72400  0.81200  1.0000
