data_image0
_chemical_formula_structural       O8Pr2Rb4
_chemical_formula_sum              "O8 Pr2 Rb4"
_cell_length_a       7.69123
_cell_length_b       7.69123
_cell_length_c       7.69123
_cell_angle_alpha    120.082
_cell_angle_beta     89.8582
_cell_angle_gamma    120.082

_space_group_name_H-M_alt    "P 1"
_space_group_IT_number       1

loop_
  _space_group_symop_operation_xyz
  'x, y, z'

loop_
  _atom_site_type_symbol
  _atom_site_label
  _atom_site_symmetry_multiplicity
  _atom_site_fract_x
  _atom_site_fract_y
  _atom_site_fract_z
  _atom_site_occupancy
  O   O1        1.0  0.11800  0.23600  0.35400  1.0000
  O   O2        1.0  0.63200  0.73600  0.36800  1.0000
  O   O3        1.0  0.10400  0.73600  0.36800  1.0000
  O   O4        1.0  0.63200  0.26400  0.36800  1.0000
  O   O5        1.0  0.11800  0.23600  0.88200  1.0000
  O   O6        1.0  0.64600  0.76400  0.88200  1.0000
  O   O7        1.0  0.11800  0.76400  0.88200  1.0000
  O   O8        1.0  0.63200  0.26400  0.89600  1.0000
  Pr  Pr1       1.0  0.00000  0.00000  0.00000  1.0000
  Pr  Pr2       1.0  0.75000  0.50000  0.25000  1.0000
  Rb  Rb1       1.0  0.37500  0.75000  0.12500  1.0000
  Rb  Rb2       1.0  0.87500  0.25000  0.62500  1.0000
  Rb  Rb3       1.0  0.37500  0.25000  0.62500  1.0000
  Rb  Rb4       1.0  0.37500  0.75000  0.62500  1.0000
