data_image0
_chemical_formula_structural       La2Zn22
_chemical_formula_sum              "La2 Zn22"
_cell_length_a       6.86904
_cell_length_b       8.26081
_cell_length_c       8.26081
_cell_angle_alpha    99.954
_cell_angle_beta     114.567
_cell_angle_gamma    65.4327

_space_group_name_H-M_alt    "P 1"
_space_group_IT_number       1

loop_
  _space_group_symop_operation_xyz
  'x, y, z'

loop_
  _atom_site_type_symbol
  _atom_site_label
  _atom_site_symmetry_multiplicity
  _atom_site_fract_x
  _atom_site_fract_y
  _atom_site_fract_z
  _atom_site_occupancy
  La  La1       1.0  0.00000  0.00000  0.00000  1.0000
  La  La2       1.0  0.25000  0.50000  0.50000  1.0000
  Zn  Zn1       1.0  0.50000  0.00000  0.00000  1.0000
  Zn  Zn2       1.0  0.18200  0.32800  0.08400  1.0000
  Zn  Zn3       1.0  0.90200  0.67200  0.08400  1.0000
  Zn  Zn4       1.0  0.82500  0.41600  0.17200  1.0000
  Zn  Zn5       1.0  0.34800  0.58400  0.17200  1.0000
  Zn  Zn6       1.0  0.62500  0.25000  0.25000  1.0000
  Zn  Zn7       1.0  0.62500  0.75000  0.25000  1.0000
  Zn  Zn8       1.0  0.42500  0.08400  0.32800  1.0000
  Zn  Zn9       1.0  0.90200  0.91600  0.32800  1.0000
  Zn  Zn10      1.0  0.06840  0.17200  0.41600  1.0000
  Zn  Zn11      1.0  0.34800  0.82800  0.41600  1.0000
  Zn  Zn12      1.0  0.75000  0.50000  0.50000  1.0000
  Zn  Zn13      1.0  0.82500  0.82800  0.58400  1.0000
  Zn  Zn14      1.0  0.75900  0.17200  0.58400  1.0000
  Zn  Zn15      1.0  0.49100  0.08400  0.67200  1.0000
  Zn  Zn16      1.0  0.18200  0.91600  0.67200  1.0000
  Zn  Zn17      1.0  0.12500  0.25000  0.75000  1.0000
  Zn  Zn18      1.0  0.62500  0.75000  0.75000  1.0000
  Zn  Zn19      1.0  0.75900  0.41600  0.82800  1.0000
  Zn  Zn20      1.0  0.06840  0.58400  0.82800  1.0000
  Zn  Zn21      1.0  0.49100  0.32800  0.91600  1.0000
  Zn  Zn22      1.0  0.42500  0.67200  0.91600  1.0000
