data_image0
_chemical_formula_structural       Li4Nb2O6
_chemical_formula_sum              "Li4 Nb2 O6"
_cell_length_a       5.14756
_cell_length_b       5.14756
_cell_length_c       5.20405
_cell_angle_alpha    99.053
_cell_angle_beta     99.053
_cell_angle_gamma    119.219

_space_group_name_H-M_alt    "P 1"
_space_group_IT_number       1

loop_
  _space_group_symop_operation_xyz
  'x, y, z'

loop_
  _atom_site_type_symbol
  _atom_site_label
  _atom_site_symmetry_multiplicity
  _atom_site_fract_x
  _atom_site_fract_y
  _atom_site_fract_z
  _atom_site_occupancy
  Li  Li1       1.0  0.50000  0.50000  0.00000  1.0000
  Li  Li2       1.0  0.00000  0.00000  0.50000  1.0000
  Li  Li3       1.0  0.65800  0.34200  0.50000  1.0000
  Li  Li4       1.0  0.34200  0.65800  0.50000  1.0000
  Nb  Nb1       1.0  0.85000  0.15000  0.00000  1.0000
  Nb  Nb2       1.0  0.15000  0.85000  0.00000  1.0000
  O   O1        1.0  0.93400  0.59000  0.23200  1.0000
  O   O2        1.0  0.59000  0.93400  0.23200  1.0000
  O   O3        1.0  0.25700  0.25700  0.26600  1.0000
  O   O4        1.0  0.74300  0.74300  0.73400  1.0000
  O   O5        1.0  0.41000  0.06580  0.76800  1.0000
  O   O6        1.0  0.06580  0.41000  0.76800  1.0000
