data_image0
_chemical_formula_structural       O8Os2U4
_chemical_formula_sum              "O8 Os2 U4"
_cell_length_a       6.88078
_cell_length_b       6.88078
_cell_length_c       6.88078
_cell_angle_alpha    120.957
_cell_angle_beta     88.35
_cell_angle_gamma    120.957

_space_group_name_H-M_alt    "P 1"
_space_group_IT_number       1

loop_
  _space_group_symop_operation_xyz
  'x, y, z'

loop_
  _atom_site_type_symbol
  _atom_site_label
  _atom_site_symmetry_multiplicity
  _atom_site_fract_x
  _atom_site_fract_y
  _atom_site_fract_z
  _atom_site_occupancy
  O   O1        1.0  0.61200  0.76600  0.37800  1.0000
  O   O2        1.0  0.62200  0.23400  0.38800  1.0000
  O   O3        1.0  0.15400  0.76600  0.38800  1.0000
  O   O4        1.0  0.13800  0.26600  0.40400  1.0000
  O   O5        1.0  0.61200  0.23400  0.84600  1.0000
  O   O6        1.0  0.59600  0.73400  0.86200  1.0000
  O   O7        1.0  0.12800  0.26600  0.86200  1.0000
  O   O8        1.0  0.13800  0.73400  0.87200  1.0000
  Os  Os1       1.0  0.00000  0.00000  0.00000  1.0000
  Os  Os2       1.0  0.75000  0.50000  0.25000  1.0000
  U   U1        1.0  0.37500  0.75000  0.12500  1.0000
  U   U2        1.0  0.37500  0.75000  0.62500  1.0000
  U   U3        1.0  0.37500  0.25000  0.62500  1.0000
  U   U4        1.0  0.87500  0.25000  0.62500  1.0000
