data_image0
_chemical_formula_structural       Li4O6Tm2
_chemical_formula_sum              "Li4 O6 Tm2"
_cell_length_a       5.56098
_cell_length_b       5.56098
_cell_length_c       5.06081
_cell_angle_alpha    99.4626
_cell_angle_beta     99.4626
_cell_angle_gamma    120.772

_space_group_name_H-M_alt    "P 1"
_space_group_IT_number       1

loop_
  _space_group_symop_operation_xyz
  'x, y, z'

loop_
  _atom_site_type_symbol
  _atom_site_label
  _atom_site_symmetry_multiplicity
  _atom_site_fract_x
  _atom_site_fract_y
  _atom_site_fract_z
  _atom_site_occupancy
  Li  Li1       1.0  0.50000  0.50000  0.00000  1.0000
  Li  Li2       1.0  0.00000  0.00000  0.50000  1.0000
  Li  Li3       1.0  0.63700  0.36300  0.50000  1.0000
  Li  Li4       1.0  0.36300  0.63700  0.50000  1.0000
  O   O1        1.0  0.24600  0.24600  0.24200  1.0000
  O   O2        1.0  0.90800  0.57800  0.25400  1.0000
  O   O3        1.0  0.57800  0.90800  0.25400  1.0000
  O   O4        1.0  0.42200  0.09240  0.74600  1.0000
  O   O5        1.0  0.09240  0.42200  0.74600  1.0000
  O   O6        1.0  0.75400  0.75400  0.75800  1.0000
  Tm  Tm1       1.0  0.83400  0.16600  0.00000  1.0000
  Tm  Tm2       1.0  0.16600  0.83400  0.00000  1.0000
