data_image0
_chemical_formula_structural       Cr2Li4O6
_chemical_formula_sum              "Cr2 Li4 O6"
_cell_length_a       4.94265
_cell_length_b       4.94265
_cell_length_c       5.01889
_cell_angle_alpha    100.054
_cell_angle_beta     100.054
_cell_angle_gamma    119.142

_space_group_name_H-M_alt    "P 1"
_space_group_IT_number       1

loop_
  _space_group_symop_operation_xyz
  'x, y, z'

loop_
  _atom_site_type_symbol
  _atom_site_label
  _atom_site_symmetry_multiplicity
  _atom_site_fract_x
  _atom_site_fract_y
  _atom_site_fract_z
  _atom_site_occupancy
  Cr  Cr1       1.0  0.82900  0.17100  0.00000  1.0000
  Cr  Cr2       1.0  0.17100  0.82900  0.00000  1.0000
  Li  Li1       1.0  0.50000  0.50000  0.00000  1.0000
  Li  Li2       1.0  0.00000  0.00000  0.50000  1.0000
  Li  Li3       1.0  0.65800  0.34200  0.50000  1.0000
  Li  Li4       1.0  0.34200  0.65800  0.50000  1.0000
  O   O1        1.0  0.22200  0.22200  0.23000  1.0000
  O   O2        1.0  0.92900  0.57000  0.23000  1.0000
  O   O3        1.0  0.57000  0.92900  0.23000  1.0000
  O   O4        1.0  0.43000  0.07110  0.77000  1.0000
  O   O5        1.0  0.07110  0.43000  0.77000  1.0000
  O   O6        1.0  0.77800  0.77800  0.77000  1.0000
