data_image0
_chemical_formula_structural       Li4O6Os2
_chemical_formula_sum              "Li4 O6 Os2"
_cell_length_a       4.94903
_cell_length_b       4.94903
_cell_length_c       5.15943
_cell_angle_alpha    99.9946
_cell_angle_beta     99.9946
_cell_angle_gamma    116.929

_space_group_name_H-M_alt    "P 1"
_space_group_IT_number       1

loop_
  _space_group_symop_operation_xyz
  'x, y, z'

loop_
  _atom_site_type_symbol
  _atom_site_label
  _atom_site_symmetry_multiplicity
  _atom_site_fract_x
  _atom_site_fract_y
  _atom_site_fract_z
  _atom_site_occupancy
  Li  Li1       1.0  0.50000  0.50000  0.00000  1.0000
  Li  Li2       1.0  0.00000  0.00000  0.50000  1.0000
  Li  Li3       1.0  0.66600  0.33400  0.50000  1.0000
  Li  Li4       1.0  0.33400  0.66600  0.50000  1.0000
  O   O1        1.0  0.91500  0.56600  0.22700  1.0000
  O   O2        1.0  0.56600  0.91500  0.22700  1.0000
  O   O3        1.0  0.25900  0.25900  0.26900  1.0000
  O   O4        1.0  0.74100  0.74100  0.73100  1.0000
  O   O5        1.0  0.43400  0.08460  0.77300  1.0000
  O   O6        1.0  0.08460  0.43400  0.77300  1.0000
  Os  Os1       1.0  0.85100  0.14900  0.00000  1.0000
  Os  Os2       1.0  0.14900  0.85100  0.00000  1.0000
