data_image0
_chemical_formula_structural       As2Li4O6
_chemical_formula_sum              "As2 Li4 O6"
_cell_length_a       5.14791
_cell_length_b       5.14791
_cell_length_c       5.1202
_cell_angle_alpha    100.017
_cell_angle_beta     100.017
_cell_angle_gamma    119.313

_space_group_name_H-M_alt    "P 1"
_space_group_IT_number       1

loop_
  _space_group_symop_operation_xyz
  'x, y, z'

loop_
  _atom_site_type_symbol
  _atom_site_label
  _atom_site_symmetry_multiplicity
  _atom_site_fract_x
  _atom_site_fract_y
  _atom_site_fract_z
  _atom_site_occupancy
  As  As1       1.0  0.83300  0.16700  0.00000  1.0000
  As  As2       1.0  0.16700  0.83300  0.00000  1.0000
  Li  Li1       1.0  0.50000  0.50000  0.00000  1.0000
  Li  Li2       1.0  0.00000  0.00000  0.50000  1.0000
  Li  Li3       1.0  0.65800  0.34200  0.50000  1.0000
  Li  Li4       1.0  0.34200  0.65800  0.50000  1.0000
  O   O1        1.0  0.93000  0.57000  0.22500  1.0000
  O   O2        1.0  0.57000  0.93000  0.22500  1.0000
  O   O3        1.0  0.24100  0.24100  0.25000  1.0000
  O   O4        1.0  0.75900  0.75900  0.75000  1.0000
  O   O5        1.0  0.43000  0.06980  0.77500  1.0000
  O   O6        1.0  0.06980  0.43000  0.77500  1.0000
