data_image0
_chemical_formula_structural       B4K6O12Y2
_chemical_formula_sum              "B4 K6 O12 Y2"
_cell_length_a       9.39079
_cell_length_b       6.71047
_cell_length_c       5.53305
_cell_angle_alpha    90
_cell_angle_beta     90
_cell_angle_gamma    90

_space_group_name_H-M_alt    "P 1"
_space_group_IT_number       1

loop_
  _space_group_symop_operation_xyz
  'x, y, z'

loop_
  _atom_site_type_symbol
  _atom_site_label
  _atom_site_symmetry_multiplicity
  _atom_site_fract_x
  _atom_site_fract_y
  _atom_site_fract_z
  _atom_site_occupancy
  B   B1        1.0  0.66600  0.23800  0.00000  1.0000
  B   B2        1.0  0.33400  0.76200  0.00000  1.0000
  B   B3        1.0  0.16600  0.26200  0.50000  1.0000
  B   B4        1.0  0.83400  0.73800  0.50000  1.0000
  K   K1        1.0  0.00000  0.00000  0.00000  1.0000
  K   K2        1.0  0.33300  0.23300  0.00000  1.0000
  K   K3        1.0  0.66700  0.76700  0.00000  1.0000
  K   K4        1.0  0.83300  0.26700  0.50000  1.0000
  K   K5        1.0  0.50000  0.50000  0.50000  1.0000
  K   K6        1.0  0.16700  0.73300  0.50000  1.0000
  O   O1        1.0  0.80500  0.30600  0.00000  1.0000
  O   O2        1.0  0.19500  0.69400  0.00000  1.0000
  O   O3        1.0  0.59600  0.20300  0.21700  1.0000
  O   O4        1.0  0.40400  0.79700  0.21700  1.0000
  O   O5        1.0  0.09600  0.29700  0.28300  1.0000
  O   O6        1.0  0.90400  0.70300  0.28300  1.0000
  O   O7        1.0  0.30500  0.19400  0.50000  1.0000
  O   O8        1.0  0.69500  0.80600  0.50000  1.0000
  O   O9        1.0  0.09600  0.29700  0.71700  1.0000
  O   O10       1.0  0.90400  0.70300  0.71700  1.0000
  O   O11       1.0  0.59600  0.20300  0.78300  1.0000
  O   O12       1.0  0.40400  0.79700  0.78300  1.0000
  Y   Y1        1.0  0.00000  0.50000  0.00000  1.0000
  Y   Y2        1.0  0.50000  0.00000  0.50000  1.0000
