data_image0
_chemical_formula_structural       Li4MoO6Zn
_chemical_formula_sum              "Li4 Mo1 O6 Zn1"
_cell_length_a       5.09825
_cell_length_b       5.09825
_cell_length_c       5.08729
_cell_angle_alpha    99.8642
_cell_angle_beta     99.8642
_cell_angle_gamma    119.81

_space_group_name_H-M_alt    "P 1"
_space_group_IT_number       1

loop_
  _space_group_symop_operation_xyz
  'x, y, z'

loop_
  _atom_site_type_symbol
  _atom_site_label
  _atom_site_symmetry_multiplicity
  _atom_site_fract_x
  _atom_site_fract_y
  _atom_site_fract_z
  _atom_site_occupancy
  Li  Li1       1.0  0.50100  0.49900  0.00000  1.0000
  Li  Li2       1.0  0.99600  0.00378  0.50000  1.0000
  Li  Li3       1.0  0.66200  0.33800  0.50000  1.0000
  Li  Li4       1.0  0.34300  0.65700  0.50000  1.0000
  Mo  Mo1       1.0  0.16800  0.83200  0.00000  1.0000
  O   O1        1.0  0.93400  0.60100  0.23200  1.0000
  O   O2        1.0  0.24400  0.22400  0.23800  1.0000
  O   O3        1.0  0.55600  0.91300  0.24000  1.0000
  O   O4        1.0  0.08670  0.44400  0.76000  1.0000
  O   O5        1.0  0.77600  0.75600  0.76200  1.0000
  O   O6        1.0  0.39900  0.06580  0.76800  1.0000
  Zn  Zn1       1.0  0.83400  0.16600  0.00000  1.0000
