data_image0
_chemical_formula_structural       Li4O6PaRh
_chemical_formula_sum              "Li4 O6 Pa1 Rh1"
_cell_length_a       5.26802
_cell_length_b       5.26802
_cell_length_c       5.27189
_cell_angle_alpha    98.9491
_cell_angle_beta     98.9491
_cell_angle_gamma    120.388

_space_group_name_H-M_alt    "P 1"
_space_group_IT_number       1

loop_
  _space_group_symop_operation_xyz
  'x, y, z'

loop_
  _atom_site_type_symbol
  _atom_site_label
  _atom_site_symmetry_multiplicity
  _atom_site_fract_x
  _atom_site_fract_y
  _atom_site_fract_z
  _atom_site_occupancy
  Li  Li1       1.0  0.50000  0.50000  0.00000  1.0000
  Li  Li2       1.0  0.97300  0.02670  0.50000  1.0000
  Li  Li3       1.0  0.66700  0.33300  0.50000  1.0000
  Li  Li4       1.0  0.35600  0.64400  0.50000  1.0000
  O   O1        1.0  0.59500  0.92000  0.24600  1.0000
  O   O2        1.0  0.23700  0.25400  0.24800  1.0000
  O   O3        1.0  0.90400  0.55800  0.24900  1.0000
  O   O4        1.0  0.44200  0.09580  0.75100  1.0000
  O   O5        1.0  0.74600  0.76300  0.75200  1.0000
  O   O6        1.0  0.07960  0.40500  0.75400  1.0000
  Pa  Pa1       1.0  0.16600  0.83400  0.00000  1.0000
  Rh  Rh1       1.0  0.83400  0.16600  0.00000  1.0000
