data_image0
_chemical_formula_structural       Li4O6RhV
_chemical_formula_sum              "Li4 O6 Rh1 V1"
_cell_length_a       4.9892
_cell_length_b       4.9892
_cell_length_c       5.05253
_cell_angle_alpha    99.5442
_cell_angle_beta     99.5442
_cell_angle_gamma    119.97

_space_group_name_H-M_alt    "P 1"
_space_group_IT_number       1

loop_
  _space_group_symop_operation_xyz
  'x, y, z'

loop_
  _atom_site_type_symbol
  _atom_site_label
  _atom_site_symmetry_multiplicity
  _atom_site_fract_x
  _atom_site_fract_y
  _atom_site_fract_z
  _atom_site_occupancy
  Li  Li1       1.0  0.50000  0.50000  0.00000  1.0000
  Li  Li2       1.0  0.66200  0.33800  0.50000  1.0000
  Li  Li3       1.0  0.34100  0.65900  0.50000  1.0000
  Li  Li4       1.0  0.99800  0.00183  0.50000  1.0000
  O   O1        1.0  0.93400  0.60000  0.23200  1.0000
  O   O2        1.0  0.55800  0.91400  0.23600  1.0000
  O   O3        1.0  0.24500  0.22400  0.23700  1.0000
  O   O4        1.0  0.77600  0.75500  0.76300  1.0000
  O   O5        1.0  0.08610  0.44200  0.76400  1.0000
  O   O6        1.0  0.40000  0.06640  0.76800  1.0000
  Rh  Rh1       1.0  0.83300  0.16700  0.00000  1.0000
  V   V1        1.0  0.16700  0.83300  0.00000  1.0000
