data_image0
_chemical_formula_structural       BCrLi4O6
_chemical_formula_sum              "B1 Cr1 Li4 O6"
_cell_length_a       4.99917
_cell_length_b       4.99917
_cell_length_c       4.87849
_cell_angle_alpha    98.7999
_cell_angle_beta     98.7999
_cell_angle_gamma    124.272

_space_group_name_H-M_alt    "P 1"
_space_group_IT_number       1

loop_
  _space_group_symop_operation_xyz
  'x, y, z'

loop_
  _atom_site_type_symbol
  _atom_site_label
  _atom_site_symmetry_multiplicity
  _atom_site_fract_x
  _atom_site_fract_y
  _atom_site_fract_z
  _atom_site_occupancy
  B   B1        1.0  0.76900  0.23100  0.00000  1.0000
  Cr  Cr1       1.0  0.15200  0.84800  0.00000  1.0000
  Li  Li1       1.0  0.48400  0.51600  0.00000  1.0000
  Li  Li2       1.0  0.98900  0.01130  0.50000  1.0000
  Li  Li3       1.0  0.68200  0.31800  0.50000  1.0000
  Li  Li4       1.0  0.34800  0.65200  0.50000  1.0000
  O   O1        1.0  0.63200  0.97600  0.17300  1.0000
  O   O2        1.0  0.92600  0.56300  0.22600  1.0000
  O   O3        1.0  0.26600  0.20900  0.25200  1.0000
  O   O4        1.0  0.79100  0.73400  0.74800  1.0000
  O   O5        1.0  0.43700  0.07350  0.77400  1.0000
  O   O6        1.0  0.02400  0.36800  0.82700  1.0000
