data_image0
_chemical_formula_structural       Li4MoO6Pd
_chemical_formula_sum              "Li4 Mo1 O6 Pd1"
_cell_length_a       5.14381
_cell_length_b       5.14381
_cell_length_c       5.12826
_cell_angle_alpha    99.854
_cell_angle_beta     99.854
_cell_angle_gamma    119.916

_space_group_name_H-M_alt    "P 1"
_space_group_IT_number       1

loop_
  _space_group_symop_operation_xyz
  'x, y, z'

loop_
  _atom_site_type_symbol
  _atom_site_label
  _atom_site_symmetry_multiplicity
  _atom_site_fract_x
  _atom_site_fract_y
  _atom_site_fract_z
  _atom_site_occupancy
  Li  Li1       1.0  0.50000  0.50000  0.00000  1.0000
  Li  Li2       1.0  0.99300  0.00734  0.50000  1.0000
  Li  Li3       1.0  0.66600  0.33400  0.50000  1.0000
  Li  Li4       1.0  0.34500  0.65500  0.50000  1.0000
  Mo  Mo1       1.0  0.16700  0.83300  0.00000  1.0000
  O   O1        1.0  0.93200  0.61800  0.23700  1.0000
  O   O2        1.0  0.26400  0.22900  0.24300  1.0000
  O   O3        1.0  0.54600  0.89900  0.24700  1.0000
  O   O4        1.0  0.10100  0.45400  0.75300  1.0000
  O   O5        1.0  0.77100  0.73600  0.75700  1.0000
  O   O6        1.0  0.38200  0.06790  0.76300  1.0000
  Pd  Pd1       1.0  0.83300  0.16700  0.00000  1.0000
