data_image0
_chemical_formula_structural       Li4O6TcTi
_chemical_formula_sum              "Li4 O6 Tc1 Ti1"
_cell_length_a       5.07071
_cell_length_b       5.07071
_cell_length_c       5.09779
_cell_angle_alpha    99.6656
_cell_angle_beta     99.6656
_cell_angle_gamma    119.918

_space_group_name_H-M_alt    "P 1"
_space_group_IT_number       1

loop_
  _space_group_symop_operation_xyz
  'x, y, z'

loop_
  _atom_site_type_symbol
  _atom_site_label
  _atom_site_symmetry_multiplicity
  _atom_site_fract_x
  _atom_site_fract_y
  _atom_site_fract_z
  _atom_site_occupancy
  Li  Li1       1.0  0.50000  0.50000  0.00000  1.0000
  Li  Li2       1.0  0.00000  0.00047  0.50000  1.0000
  Li  Li3       1.0  0.66000  0.34000  0.50000  1.0000
  Li  Li4       1.0  0.34100  0.65900  0.50000  1.0000
  O   O1        1.0  0.58600  0.92900  0.23400  1.0000
  O   O2        1.0  0.92300  0.57300  0.23600  1.0000
  O   O3        1.0  0.23000  0.23600  0.23800  1.0000
  O   O4        1.0  0.76400  0.77000  0.76200  1.0000
  O   O5        1.0  0.42700  0.07730  0.76400  1.0000
  O   O6        1.0  0.07140  0.41400  0.76600  1.0000
  Tc  Tc1       1.0  0.16700  0.83300  0.00000  1.0000
  Ti  Ti1       1.0  0.83200  0.16800  0.00000  1.0000
