data_image0
_chemical_formula_structural       HfLi4O6V
_chemical_formula_sum              "Hf1 Li4 O6 V1"
_cell_length_a       5.16728
_cell_length_b       5.16728
_cell_length_c       5.11147
_cell_angle_alpha    99.4847
_cell_angle_beta     99.4847
_cell_angle_gamma    120.232

_space_group_name_H-M_alt    "P 1"
_space_group_IT_number       1

loop_
  _space_group_symop_operation_xyz
  'x, y, z'

loop_
  _atom_site_type_symbol
  _atom_site_label
  _atom_site_symmetry_multiplicity
  _atom_site_fract_x
  _atom_site_fract_y
  _atom_site_fract_z
  _atom_site_occupancy
  Hf  Hf1       1.0  0.83700  0.16300  0.00000  1.0000
  Li  Li1       1.0  0.49800  0.50200  0.00000  1.0000
  Li  Li2       1.0  0.00939  0.99100  0.50000  1.0000
  Li  Li3       1.0  0.65300  0.34700  0.50000  1.0000
  Li  Li4       1.0  0.34000  0.66000  0.50000  1.0000
  O   O1        1.0  0.93900  0.59700  0.22300  1.0000
  O   O2        1.0  0.56700  0.92400  0.23600  1.0000
  O   O3        1.0  0.23600  0.22700  0.24100  1.0000
  O   O4        1.0  0.77300  0.76400  0.75900  1.0000
  O   O5        1.0  0.07570  0.43300  0.76400  1.0000
  O   O6        1.0  0.40300  0.06110  0.77700  1.0000
  V   V1        1.0  0.16700  0.83300  0.00000  1.0000
