data_image0
_chemical_formula_structural       Li4O6TcTe
_chemical_formula_sum              "Li4 O6 Tc1 Te1"
_cell_length_a       5.33985
_cell_length_b       5.33985
_cell_length_c       5.22866
_cell_angle_alpha    99.7492
_cell_angle_beta     99.7492
_cell_angle_gamma    120.011

_space_group_name_H-M_alt    "P 1"
_space_group_IT_number       1

loop_
  _space_group_symop_operation_xyz
  'x, y, z'

loop_
  _atom_site_type_symbol
  _atom_site_label
  _atom_site_symmetry_multiplicity
  _atom_site_fract_x
  _atom_site_fract_y
  _atom_site_fract_z
  _atom_site_occupancy
  Li  Li1       1.0  0.49900  0.50100  0.00000  1.0000
  Li  Li2       1.0  0.01260  0.98700  0.50000  1.0000
  Li  Li3       1.0  0.65300  0.34700  0.50000  1.0000
  Li  Li4       1.0  0.34000  0.66000  0.50000  1.0000
  O   O1        1.0  0.92700  0.59100  0.23400  1.0000
  O   O2        1.0  0.56200  0.91700  0.24000  1.0000
  O   O3        1.0  0.24600  0.22900  0.24500  1.0000
  O   O4        1.0  0.77100  0.75400  0.75500  1.0000
  O   O5        1.0  0.08310  0.43800  0.76000  1.0000
  O   O6        1.0  0.40900  0.07310  0.76600  1.0000
  Tc  Tc1       1.0  0.16600  0.83400  0.00000  1.0000
  Te  Te1       1.0  0.83200  0.16800  0.00000  1.0000
