data_image0
_chemical_formula_structural       GaLi4MoO6
_chemical_formula_sum              "Ga1 Li4 Mo1 O6"
_cell_length_a       5.11807
_cell_length_b       5.11807
_cell_length_c       5.09509
_cell_angle_alpha    99.7815
_cell_angle_beta     99.7815
_cell_angle_gamma    119.915

_space_group_name_H-M_alt    "P 1"
_space_group_IT_number       1

loop_
  _space_group_symop_operation_xyz
  'x, y, z'

loop_
  _atom_site_type_symbol
  _atom_site_label
  _atom_site_symmetry_multiplicity
  _atom_site_fract_x
  _atom_site_fract_y
  _atom_site_fract_z
  _atom_site_occupancy
  Ga  Ga1       1.0  0.16700  0.83300  0.00000  1.0000
  Li  Li1       1.0  0.50000  0.50000  0.00000  1.0000
  Li  Li2       1.0  0.00267  0.99700  0.50000  1.0000
  Li  Li3       1.0  0.65800  0.34200  0.50000  1.0000
  Li  Li4       1.0  0.33900  0.66100  0.50000  1.0000
  Mo  Mo1       1.0  0.83300  0.16700  0.00000  1.0000
  O   O1        1.0  0.58100  0.93100  0.23000  1.0000
  O   O2        1.0  0.92800  0.57600  0.23200  1.0000
  O   O3        1.0  0.22600  0.22800  0.23500  1.0000
  O   O4        1.0  0.77200  0.77400  0.76500  1.0000
  O   O5        1.0  0.42400  0.07200  0.76800  1.0000
  O   O6        1.0  0.06940  0.41900  0.77000  1.0000
