data_image0
_chemical_formula_structural       Li4O6RhSb
_chemical_formula_sum              "Li4 O6 Rh1 Sb1"
_cell_length_a       5.19168
_cell_length_b       5.19168
_cell_length_c       5.1118
_cell_angle_alpha    99.7461
_cell_angle_beta     99.7461
_cell_angle_gamma    119.967

_space_group_name_H-M_alt    "P 1"
_space_group_IT_number       1

loop_
  _space_group_symop_operation_xyz
  'x, y, z'

loop_
  _atom_site_type_symbol
  _atom_site_label
  _atom_site_symmetry_multiplicity
  _atom_site_fract_x
  _atom_site_fract_y
  _atom_site_fract_z
  _atom_site_occupancy
  Li  Li1       1.0  0.50100  0.49900  0.00000  1.0000
  Li  Li2       1.0  0.98700  0.01280  0.50000  1.0000
  Li  Li3       1.0  0.66600  0.33400  0.50000  1.0000
  Li  Li4       1.0  0.34500  0.65500  0.50000  1.0000
  O   O1        1.0  0.92900  0.58600  0.23400  1.0000
  O   O2        1.0  0.57100  0.92100  0.23700  1.0000
  O   O3        1.0  0.23700  0.22800  0.23900  1.0000
  O   O4        1.0  0.77200  0.76300  0.76100  1.0000
  O   O5        1.0  0.07850  0.42900  0.76300  1.0000
  O   O6        1.0  0.41400  0.07080  0.76600  1.0000
  Rh  Rh1       1.0  0.83400  0.16600  0.00000  1.0000
  Sb  Sb1       1.0  0.16700  0.83300  0.00000  1.0000
