data_image0
_chemical_formula_structural       IrLi4O6V
_chemical_formula_sum              "Ir1 Li4 O6 V1"
_cell_length_a       5.03122
_cell_length_b       5.03122
_cell_length_c       5.07461
_cell_angle_alpha    99.2416
_cell_angle_beta     99.2416
_cell_angle_gamma    120.746

_space_group_name_H-M_alt    "P 1"
_space_group_IT_number       1

loop_
  _space_group_symop_operation_xyz
  'x, y, z'

loop_
  _atom_site_type_symbol
  _atom_site_label
  _atom_site_symmetry_multiplicity
  _atom_site_fract_x
  _atom_site_fract_y
  _atom_site_fract_z
  _atom_site_occupancy
  Ir  Ir1       1.0  0.16800  0.83200  0.00000  1.0000
  Li  Li1       1.0  0.50000  0.50000  0.00000  1.0000
  Li  Li2       1.0  0.00197  0.99800  0.50000  1.0000
  Li  Li3       1.0  0.65800  0.34200  0.50000  1.0000
  Li  Li4       1.0  0.34000  0.66000  0.50000  1.0000
  O   O1        1.0  0.23200  0.23800  0.23400  1.0000
  O   O2        1.0  0.59300  0.93000  0.23600  1.0000
  O   O3        1.0  0.91900  0.57600  0.24300  1.0000
  O   O4        1.0  0.42400  0.08080  0.75700  1.0000
  O   O5        1.0  0.07030  0.40700  0.76400  1.0000
  O   O6        1.0  0.76200  0.76800  0.76600  1.0000
  V   V1        1.0  0.83100  0.16900  0.00000  1.0000
