data_image0
_chemical_formula_structural       AsLi4NiO6
_chemical_formula_sum              "As1 Li4 Ni1 O6"
_cell_length_a       4.95214
_cell_length_b       4.95213
_cell_length_c       4.97482
_cell_angle_alpha    99.0743
_cell_angle_beta     99.0742
_cell_angle_gamma    120.874

_space_group_name_H-M_alt    "P 1"
_space_group_IT_number       1

loop_
  _space_group_symop_operation_xyz
  'x, y, z'

loop_
  _atom_site_type_symbol
  _atom_site_label
  _atom_site_symmetry_multiplicity
  _atom_site_fract_x
  _atom_site_fract_y
  _atom_site_fract_z
  _atom_site_occupancy
  As  As1       1.0  0.16300  0.83700  0.00000  1.0000
  Li  Li1       1.0  0.50000  0.50000  0.00000  1.0000
  Li  Li2       1.0  0.00000  0.00027  0.50000  1.0000
  Li  Li3       1.0  0.66100  0.33900  0.50000  1.0000
  Li  Li4       1.0  0.34200  0.65800  0.50000  1.0000
  Ni  Ni1       1.0  0.83100  0.16900  0.00000  1.0000
  O   O1        1.0  0.56800  0.93200  0.21900  1.0000
  O   O2        1.0  0.94600  0.59600  0.22900  1.0000
  O   O3        1.0  0.23300  0.21400  0.23000  1.0000
  O   O4        1.0  0.78600  0.76700  0.77000  1.0000
  O   O5        1.0  0.40400  0.05440  0.77100  1.0000
  O   O6        1.0  0.06800  0.43200  0.78100  1.0000
