data_image0
_chemical_formula_structural       GaLi4MnO6
_chemical_formula_sum              "Ga1 Li4 Mn1 O6"
_cell_length_a       5.01057
_cell_length_b       5.01056
_cell_length_c       4.9733
_cell_angle_alpha    99.7914
_cell_angle_beta     99.7912
_cell_angle_gamma    120.238

_space_group_name_H-M_alt    "P 1"
_space_group_IT_number       1

loop_
  _space_group_symop_operation_xyz
  'x, y, z'

loop_
  _atom_site_type_symbol
  _atom_site_label
  _atom_site_symmetry_multiplicity
  _atom_site_fract_x
  _atom_site_fract_y
  _atom_site_fract_z
  _atom_site_occupancy
  Ga  Ga1       1.0  0.16500  0.83500  0.00000  1.0000
  Li  Li1       1.0  0.50100  0.49900  0.00000  1.0000
  Li  Li2       1.0  0.99900  0.00114  0.50000  1.0000
  Li  Li3       1.0  0.65800  0.34200  0.50000  1.0000
  Li  Li4       1.0  0.34200  0.65800  0.50000  1.0000
  Mn  Mn1       1.0  0.83300  0.16700  0.00000  1.0000
  O   O1        1.0  0.58800  0.93400  0.23000  1.0000
  O   O2        1.0  0.92500  0.56700  0.23300  1.0000
  O   O3        1.0  0.22200  0.23200  0.23500  1.0000
  O   O4        1.0  0.76800  0.77800  0.76500  1.0000
  O   O5        1.0  0.43300  0.07480  0.76700  1.0000
  O   O6        1.0  0.06620  0.41200  0.77000  1.0000
