data_image0
_chemical_formula_structural       LiO6Sn2
_chemical_formula_sum              "Li1 O6 Sn2"
_cell_length_a       5.74067
_cell_length_b       5.74067
_cell_length_c       4.55174
_cell_angle_alpha    105.65
_cell_angle_beta     105.65
_cell_angle_gamma    125.145

_space_group_name_H-M_alt    "P 1"
_space_group_IT_number       1

loop_
  _space_group_symop_operation_xyz
  'x, y, z'

loop_
  _atom_site_type_symbol
  _atom_site_label
  _atom_site_symmetry_multiplicity
  _atom_site_fract_x
  _atom_site_fract_y
  _atom_site_fract_z
  _atom_site_occupancy
  Li  Li1       1.0  0.50000  0.50000  0.00000  1.0000
  O   O1        1.0  0.94100  0.59900  0.25500  1.0000
  O   O2        1.0  0.59900  0.94100  0.25500  1.0000
  O   O3        1.0  0.28000  0.28000  0.26500  1.0000
  O   O4        1.0  0.72000  0.72000  0.73500  1.0000
  O   O5        1.0  0.40100  0.05930  0.74500  1.0000
  O   O6        1.0  0.05930  0.40100  0.74500  1.0000
  Sn  Sn1       1.0  0.83800  0.16200  0.00000  1.0000
  Sn  Sn2       1.0  0.16200  0.83800  0.00000  1.0000
