data_image0
_chemical_formula_structural       CoLi4O6Pa
_chemical_formula_sum              "Co1 Li4 O6 Pa1"
_cell_length_a       5.24623
_cell_length_b       5.24623
_cell_length_c       5.1642
_cell_angle_alpha    98.8908
_cell_angle_beta     98.8908
_cell_angle_gamma    120.642

_space_group_name_H-M_alt    "P 1"
_space_group_IT_number       1

loop_
  _space_group_symop_operation_xyz
  'x, y, z'

loop_
  _atom_site_type_symbol
  _atom_site_label
  _atom_site_symmetry_multiplicity
  _atom_site_fract_x
  _atom_site_fract_y
  _atom_site_fract_z
  _atom_site_occupancy
  Co  Co1       1.0  0.83400  0.16600  0.00000  1.0000
  Li  Li1       1.0  0.49900  0.50100  0.00000  1.0000
  Li  Li2       1.0  0.96600  0.03360  0.50000  1.0000
  Li  Li3       1.0  0.67500  0.32500  0.50000  1.0000
  Li  Li4       1.0  0.35600  0.64400  0.50000  1.0000
  O   O1        1.0  0.60300  0.93000  0.23300  1.0000
  O   O2        1.0  0.90100  0.53900  0.24000  1.0000
  O   O3        1.0  0.21700  0.24900  0.24000  1.0000
  O   O4        1.0  0.75100  0.78300  0.76000  1.0000
  O   O5        1.0  0.46100  0.09850  0.76000  1.0000
  O   O6        1.0  0.07030  0.39700  0.76700  1.0000
  Pa  Pa1       1.0  0.16500  0.83500  0.00000  1.0000
