data_image0
_chemical_formula_structural       CaCo2Ge2
_chemical_formula_sum              "Ca1 Co2 Ge2"
_cell_length_a       3.97144
_cell_length_b       3.97144
_cell_length_c       5.87765
_cell_angle_alpha    109.745
_cell_angle_beta     109.745
_cell_angle_gamma    90

_space_group_name_H-M_alt    "P 1"
_space_group_IT_number       1

loop_
  _space_group_symop_operation_xyz
  'x, y, z'

loop_
  _atom_site_type_symbol
  _atom_site_label
  _atom_site_symmetry_multiplicity
  _atom_site_fract_x
  _atom_site_fract_y
  _atom_site_fract_z
  _atom_site_occupancy
  Ca  Ca1       1.0  0.00000  0.00000  0.00000  1.0000
  Co  Co1       1.0  0.75000  0.25000  0.50000  1.0000
  Co  Co2       1.0  0.25000  0.75000  0.50000  1.0000
  Ge  Ge1       1.0  0.63100  0.63100  0.26200  1.0000
  Ge  Ge2       1.0  0.36900  0.36900  0.73800  1.0000
