data_image0
_chemical_formula_structural       C4H16N4Na4O8
_chemical_formula_sum              "C4 H16 N4 Na4 O8"
_cell_length_a       5.7625
_cell_length_b       10.2394
_cell_length_c       6.37873
_cell_angle_alpha    90
_cell_angle_beta     101.105
_cell_angle_gamma    90

_space_group_name_H-M_alt    "P 1"
_space_group_IT_number       1

loop_
  _space_group_symop_operation_xyz
  'x, y, z'

loop_
  _atom_site_type_symbol
  _atom_site_label
  _atom_site_symmetry_multiplicity
  _atom_site_fract_x
  _atom_site_fract_y
  _atom_site_fract_z
  _atom_site_occupancy
  C   C1        1.0  0.33000  0.44000  0.20500  1.0000
  C   C2        1.0  0.67000  0.94000  0.29500  1.0000
  C   C3        1.0  0.33000  0.06000  0.70500  1.0000
  C   C4        1.0  0.67000  0.56000  0.79500  1.0000
  H   H1        1.0  0.59200  0.24800  0.14000  1.0000
  H   H2        1.0  0.81100  0.55400  0.16500  1.0000
  H   H3        1.0  0.37000  0.00396  0.20500  1.0000
  H   H4        1.0  0.70200  0.11200  0.21600  1.0000
  H   H5        1.0  0.29800  0.61200  0.28400  1.0000
  H   H6        1.0  0.63000  0.50400  0.29500  1.0000
  H   H7        1.0  0.18900  0.05400  0.33500  1.0000
  H   H8        1.0  0.40800  0.74800  0.36000  1.0000
  H   H9        1.0  0.59200  0.25200  0.64000  1.0000
  H   H10       1.0  0.81100  0.94600  0.66500  1.0000
  H   H11       1.0  0.37000  0.49600  0.70500  1.0000
  H   H12       1.0  0.70200  0.38800  0.71600  1.0000
  H   H13       1.0  0.29800  0.88800  0.78400  1.0000
  H   H14       1.0  0.63000  0.99600  0.79500  1.0000
  H   H15       1.0  0.18900  0.44600  0.83500  1.0000
  H   H16       1.0  0.40800  0.75200  0.86000  1.0000
  N   N1        1.0  0.24400  0.34700  0.11300  1.0000
  N   N2        1.0  0.75600  0.84700  0.38700  1.0000
  N   N3        1.0  0.24400  0.15300  0.61300  1.0000
  N   N4        1.0  0.75600  0.65300  0.88700  1.0000
  Na  Na1       1.0  0.99800  0.82800  0.06910  1.0000
  Na  Na2       1.0  0.00156  0.32800  0.43100  1.0000
  Na  Na3       1.0  0.99800  0.67200  0.56900  1.0000
  Na  Na4       1.0  0.00156  0.17200  0.93100  1.0000
  O   O1        1.0  0.74400  0.20200  0.17500  1.0000
  O   O2        1.0  0.19800  0.02330  0.19100  1.0000
  O   O3        1.0  0.80200  0.52300  0.30900  1.0000
  O   O4        1.0  0.25600  0.70200  0.32500  1.0000
  O   O5        1.0  0.74400  0.29800  0.67500  1.0000
  O   O6        1.0  0.19800  0.47700  0.69100  1.0000
  O   O7        1.0  0.80200  0.97700  0.80900  1.0000
  O   O8        1.0  0.25600  0.79800  0.82500  1.0000
