data_image0
_chemical_formula_structural       Ba2N2Zn
_chemical_formula_sum              "Ba2 N2 Zn1"
_cell_length_a       4.16686
_cell_length_b       4.16686
_cell_length_c       7.1679
_cell_angle_alpha    106.898
_cell_angle_beta     106.898
_cell_angle_gamma    90

_space_group_name_H-M_alt    "P 1"
_space_group_IT_number       1

loop_
  _space_group_symop_operation_xyz
  'x, y, z'

loop_
  _atom_site_type_symbol
  _atom_site_label
  _atom_site_symmetry_multiplicity
  _atom_site_fract_x
  _atom_site_fract_y
  _atom_site_fract_z
  _atom_site_occupancy
  Ba  Ba1       1.0  0.65500  0.65500  0.31100  1.0000
  Ba  Ba2       1.0  0.34500  0.34500  0.68900  1.0000
  N   N1        1.0  0.14100  0.14100  0.28200  1.0000
  N   N2        1.0  0.85900  0.85900  0.71800  1.0000
  Zn  Zn1       1.0  0.00000  0.00000  0.00000  1.0000
