data_image0
_chemical_formula_structural       CoLi4O6Si
_chemical_formula_sum              "Co1 Li4 O6 Si1"
_cell_length_a       4.87875
_cell_length_b       4.87875
_cell_length_c       4.93848
_cell_angle_alpha    99.1289
_cell_angle_beta     99.1289
_cell_angle_gamma    120.715

_space_group_name_H-M_alt    "P 1"
_space_group_IT_number       1

loop_
  _space_group_symop_operation_xyz
  'x, y, z'

loop_
  _atom_site_type_symbol
  _atom_site_label
  _atom_site_symmetry_multiplicity
  _atom_site_fract_x
  _atom_site_fract_y
  _atom_site_fract_z
  _atom_site_occupancy
  Co  Co1       1.0  0.17000  0.83000  0.00000  1.0000
  Li  Li1       1.0  0.50000  0.50000  0.00000  1.0000
  Li  Li2       1.0  0.00068  0.99900  0.50000  1.0000
  Li  Li3       1.0  0.65600  0.34400  0.50000  1.0000
  Li  Li4       1.0  0.34000  0.66000  0.50000  1.0000
  O   O1        1.0  0.93300  0.56000  0.21700  1.0000
  O   O2        1.0  0.59800  0.95200  0.22300  1.0000
  O   O3        1.0  0.20500  0.22800  0.22300  1.0000
  O   O4        1.0  0.77200  0.79500  0.77700  1.0000
  O   O5        1.0  0.04840  0.40200  0.77700  1.0000
  O   O6        1.0  0.44000  0.06690  0.78300  1.0000
  Si  Si1       1.0  0.83700  0.16300  0.00000  1.0000
