data_image0
_chemical_formula_structural       AlCo2Gd2
_chemical_formula_sum              "Al1 Co2 Gd2"
_cell_length_a       4.04618
_cell_length_b       5.42669
_cell_length_c       5.42669
_cell_angle_alpha    102.179
_cell_angle_beta     111.889
_cell_angle_gamma    111.889

_space_group_name_H-M_alt    "P 1"
_space_group_IT_number       1

loop_
  _space_group_symop_operation_xyz
  'x, y, z'

loop_
  _atom_site_type_symbol
  _atom_site_label
  _atom_site_symmetry_multiplicity
  _atom_site_fract_x
  _atom_site_fract_y
  _atom_site_fract_z
  _atom_site_occupancy
  Al  Al1       1.0  0.00000  0.00000  0.00000  1.0000
  Co  Co1       1.0  0.77700  0.27700  0.27700  1.0000
  Co  Co2       1.0  0.22300  0.72300  0.72300  1.0000
  Gd  Gd1       1.0  0.50000  0.70400  0.29600  1.0000
  Gd  Gd2       1.0  0.50000  0.29600  0.70400  1.0000
