data_image0
_chemical_formula_structural       Cl2CoO2Sr2
_chemical_formula_sum              "Cl2 Co1 O2 Sr2"
_cell_length_a       4.07265
_cell_length_b       4.07265
_cell_length_c       8.09355
_cell_angle_alpha    104.572
_cell_angle_beta     104.572
_cell_angle_gamma    90

_space_group_name_H-M_alt    "P 1"
_space_group_IT_number       1

loop_
  _space_group_symop_operation_xyz
  'x, y, z'

loop_
  _atom_site_type_symbol
  _atom_site_label
  _atom_site_symmetry_multiplicity
  _atom_site_fract_x
  _atom_site_fract_y
  _atom_site_fract_z
  _atom_site_occupancy
  Cl  Cl1       1.0  0.18100  0.18100  0.36300  1.0000
  Cl  Cl2       1.0  0.81900  0.81900  0.63700  1.0000
  Co  Co1       1.0  0.00000  0.00000  0.00000  1.0000
  O   O1        1.0  0.50000  0.00000  0.00000  1.0000
  O   O2        1.0  0.00000  0.50000  0.00000  1.0000
  Sr  Sr1       1.0  0.60900  0.60900  0.21700  1.0000
  Sr  Sr2       1.0  0.39100  0.39100  0.78300  1.0000
