data_image0
_chemical_formula_structural       HoNaS2
_chemical_formula_sum              "Ho1 Na1 S2"
_cell_length_a       3.95448
_cell_length_b       3.95448
_cell_length_c       7.05765
_cell_angle_alpha    106.27
_cell_angle_beta     73.7305
_cell_angle_gamma    120

_space_group_name_H-M_alt    "P 1"
_space_group_IT_number       1

loop_
  _space_group_symop_operation_xyz
  'x, y, z'

loop_
  _atom_site_type_symbol
  _atom_site_label
  _atom_site_symmetry_multiplicity
  _atom_site_fract_x
  _atom_site_fract_y
  _atom_site_fract_z
  _atom_site_occupancy
  Ho  Ho1       1.0  0.00000  0.00000  0.00000  1.0000
  Na  Na1       1.0  0.50000  0.50000  0.50000  1.0000
  S   S1        1.0  0.25800  0.74200  0.22700  1.0000
  S   S2        1.0  0.74200  0.25800  0.77300  1.0000
