data_image0
_chemical_formula_structural       Cu2P2Sr
_chemical_formula_sum              "Cu2 P2 Sr1"
_cell_length_a       4.13868
_cell_length_b       4.13868
_cell_length_c       5.6535
_cell_angle_alpha    111.471
_cell_angle_beta     111.471
_cell_angle_gamma    90

_space_group_name_H-M_alt    "P 1"
_space_group_IT_number       1

loop_
  _space_group_symop_operation_xyz
  'x, y, z'

loop_
  _atom_site_type_symbol
  _atom_site_label
  _atom_site_symmetry_multiplicity
  _atom_site_fract_x
  _atom_site_fract_y
  _atom_site_fract_z
  _atom_site_occupancy
  Cu  Cu1       1.0  0.75000  0.25000  0.50000  1.0000
  Cu  Cu2       1.0  0.25000  0.75000  0.50000  1.0000
  P   P1        1.0  0.62100  0.62100  0.24300  1.0000
  P   P2        1.0  0.37900  0.37900  0.75700  1.0000
  Sr  Sr1       1.0  0.00000  0.00000  0.00000  1.0000
