data_image0
_chemical_formula_structural       BaCoGd2O5
_chemical_formula_sum              "Ba1 Co1 Gd2 O5"
_cell_length_a       3.75921
_cell_length_b       5.83086
_cell_length_c       6.74286
_cell_angle_alpha    115.618
_cell_angle_beta     106.186
_cell_angle_gamma    90

_space_group_name_H-M_alt    "P 1"
_space_group_IT_number       1

loop_
  _space_group_symop_operation_xyz
  'x, y, z'

loop_
  _atom_site_type_symbol
  _atom_site_label
  _atom_site_symmetry_multiplicity
  _atom_site_fract_x
  _atom_site_fract_y
  _atom_site_fract_z
  _atom_site_occupancy
  Ba  Ba1       1.0  0.00000  0.00000  0.00000  1.0000
  Co  Co1       1.0  0.50000  0.50000  0.00000  1.0000
  Gd  Gd1       1.0  0.20300  0.70300  0.40700  1.0000
  Gd  Gd2       1.0  0.79700  0.29700  0.59300  1.0000
  O   O1        1.0  0.00000  0.50000  0.00000  1.0000
  O   O2        1.0  0.64900  0.40700  0.29800  1.0000
  O   O3        1.0  0.64900  0.89100  0.29800  1.0000
  O   O4        1.0  0.35100  0.10900  0.70200  1.0000
  O   O5        1.0  0.35100  0.59300  0.70200  1.0000
