data_image0
_chemical_formula_structural       CoTb6Te2
_chemical_formula_sum              "Co1 Tb6 Te2"
_cell_length_a       8.40559
_cell_length_b       8.40559
_cell_length_c       3.92368
_cell_angle_alpha    90
_cell_angle_beta     90
_cell_angle_gamma    120

_space_group_name_H-M_alt    "P 1"
_space_group_IT_number       1

loop_
  _space_group_symop_operation_xyz
  'x, y, z'

loop_
  _atom_site_type_symbol
  _atom_site_label
  _atom_site_symmetry_multiplicity
  _atom_site_fract_x
  _atom_site_fract_y
  _atom_site_fract_z
  _atom_site_occupancy
  Co  Co1       1.0  0.00000  0.00000  0.50000  1.0000
  Tb  Tb1       1.0  0.23500  0.00000  0.00000  1.0000
  Tb  Tb2       1.0  0.00000  0.23500  0.00000  1.0000
  Tb  Tb3       1.0  0.76500  0.76500  0.00000  1.0000
  Tb  Tb4       1.0  0.59700  0.00000  0.50000  1.0000
  Tb  Tb5       1.0  0.40300  0.40300  0.50000  1.0000
  Tb  Tb6       1.0  0.00000  0.59700  0.50000  1.0000
  Te  Te1       1.0  0.66700  0.33300  0.00000  1.0000
  Te  Te2       1.0  0.33300  0.66700  0.00000  1.0000
