data_image0
_chemical_formula_structural       Co2CsS2
_chemical_formula_sum              "Co2 Cs1 S2"
_cell_length_a       3.78052
_cell_length_b       3.78052
_cell_length_c       7.36757
_cell_angle_alpha    104.85
_cell_angle_beta     104.85
_cell_angle_gamma    90.0825

_space_group_name_H-M_alt    "P 1"
_space_group_IT_number       1

loop_
  _space_group_symop_operation_xyz
  'x, y, z'

loop_
  _atom_site_type_symbol
  _atom_site_label
  _atom_site_symmetry_multiplicity
  _atom_site_fract_x
  _atom_site_fract_y
  _atom_site_fract_z
  _atom_site_occupancy
  Co  Co1       1.0  0.75000  0.25000  0.50000  1.0000
  Co  Co2       1.0  0.25000  0.75000  0.50000  1.0000
  Cs  Cs1       1.0  0.00000  0.00000  0.99900  1.0000
  S   S1        1.0  0.66500  0.66500  0.33000  1.0000
  S   S2        1.0  0.33500  0.33500  0.67100  1.0000
