data_image0
_chemical_formula_structural       Co2Ge2Na4O8
_chemical_formula_sum              "Co2 Ge2 Na4 O8"
_cell_length_a       6.55731
_cell_length_b       5.93673
_cell_length_c       5.3653
_cell_angle_alpha    90
_cell_angle_beta     90
_cell_angle_gamma    90

_space_group_name_H-M_alt    "P 1"
_space_group_IT_number       1

loop_
  _space_group_symop_operation_xyz
  'x, y, z'

loop_
  _atom_site_type_symbol
  _atom_site_label
  _atom_site_symmetry_multiplicity
  _atom_site_fract_x
  _atom_site_fract_y
  _atom_site_fract_z
  _atom_site_occupancy
  Co  Co1       1.0  0.00000  0.84300  0.99600  1.0000
  Co  Co2       1.0  0.50000  0.15700  0.49600  1.0000
  Ge  Ge1       1.0  0.50000  0.84700  0.00000  1.0000
  Ge  Ge2       1.0  0.00000  0.15300  0.50000  1.0000
  Na  Na1       1.0  0.25000  0.33400  0.99300  1.0000
  Na  Na2       1.0  0.75000  0.33400  0.99300  1.0000
  Na  Na3       1.0  0.25000  0.66600  0.49300  1.0000
  Na  Na4       1.0  0.75000  0.66600  0.49300  1.0000
  O   O1        1.0  0.50000  0.86700  0.32800  1.0000
  O   O2        1.0  0.00000  0.88400  0.36000  1.0000
  O   O3        1.0  0.22700  0.30100  0.41500  1.0000
  O   O4        1.0  0.77300  0.30100  0.41500  1.0000
  O   O5        1.0  0.00000  0.13300  0.82800  1.0000
  O   O6        1.0  0.50000  0.11600  0.86000  1.0000
  O   O7        1.0  0.27300  0.69900  0.91500  1.0000
  O   O8        1.0  0.72700  0.69900  0.91500  1.0000
