data_image0
_chemical_formula_structural       B4Ce3Co11
_chemical_formula_sum              "B4 Ce3 Co11"
_cell_length_a       5.1801
_cell_length_b       5.1801
_cell_length_c       9.72494
_cell_angle_alpha    90
_cell_angle_beta     90
_cell_angle_gamma    120

_space_group_name_H-M_alt    "P 1"
_space_group_IT_number       1

loop_
  _space_group_symop_operation_xyz
  'x, y, z'

loop_
  _atom_site_type_symbol
  _atom_site_label
  _atom_site_symmetry_multiplicity
  _atom_site_fract_x
  _atom_site_fract_y
  _atom_site_fract_z
  _atom_site_occupancy
  B   B1        1.0  0.66700  0.33300  0.35000  1.0000
  B   B2        1.0  0.33300  0.66700  0.35000  1.0000
  B   B3        1.0  0.66700  0.33300  0.65000  1.0000
  B   B4        1.0  0.33300  0.66700  0.65000  1.0000
  Ce  Ce1       1.0  0.00000  0.00000  0.00000  1.0000
  Ce  Ce2       1.0  0.00000  0.00000  0.34000  1.0000
  Ce  Ce3       1.0  0.00000  0.00000  0.66000  1.0000
  Co  Co1       1.0  0.66700  0.33300  0.00000  1.0000
  Co  Co2       1.0  0.33300  0.66700  0.00000  1.0000
  Co  Co3       1.0  0.50000  0.00000  0.20600  1.0000
  Co  Co4       1.0  0.00000  0.50000  0.20600  1.0000
  Co  Co5       1.0  0.50000  0.50000  0.20600  1.0000
  Co  Co6       1.0  0.50000  0.00000  0.50000  1.0000
  Co  Co7       1.0  0.50000  0.50000  0.50000  1.0000
  Co  Co8       1.0  0.00000  0.50000  0.50000  1.0000
  Co  Co9       1.0  0.50000  0.50000  0.79400  1.0000
  Co  Co10      1.0  0.50000  0.00000  0.79400  1.0000
  Co  Co11      1.0  0.00000  0.50000  0.79400  1.0000
