data_image0
_chemical_formula_structural       C6Cs2Mn2N6
_chemical_formula_sum              "C6 Cs2 Mn2 N6"
_cell_length_a       7.09141
_cell_length_b       7.09141
_cell_length_c       7.09141
_cell_angle_alpha    120
_cell_angle_beta     90
_cell_angle_gamma    120

_space_group_name_H-M_alt    "P 1"
_space_group_IT_number       1

loop_
  _space_group_symop_operation_xyz
  'x, y, z'

loop_
  _atom_site_type_symbol
  _atom_site_label
  _atom_site_symmetry_multiplicity
  _atom_site_fract_x
  _atom_site_fract_y
  _atom_site_fract_z
  _atom_site_occupancy
  C   C1        1.0  0.69000  0.00000  0.31000  1.0000
  C   C2        1.0  0.31000  0.00000  0.31000  1.0000
  C   C3        1.0  0.31000  0.62100  0.31000  1.0000
  C   C4        1.0  0.31000  0.00000  0.69000  1.0000
  C   C5        1.0  0.69000  0.37900  0.69000  1.0000
  C   C6        1.0  0.69000  0.00000  0.69000  1.0000
  Cs  Cs1       1.0  0.75000  0.50000  0.25000  1.0000
  Cs  Cs2       1.0  0.25000  0.50000  0.75000  1.0000
  Mn  Mn1       1.0  0.00000  0.00000  0.00000  1.0000
  Mn  Mn2       1.0  0.50000  0.00000  0.50000  1.0000
  N   N1        1.0  0.80800  0.00000  0.19200  1.0000
  N   N2        1.0  0.19200  0.00000  0.19200  1.0000
  N   N3        1.0  0.19200  0.38400  0.19200  1.0000
  N   N4        1.0  0.19200  0.00000  0.80800  1.0000
  N   N5        1.0  0.80800  0.61600  0.80800  1.0000
  N   N6        1.0  0.80800  0.00000  0.80800  1.0000
