data_image0
_chemical_formula_structural       Cs4F16V4
_chemical_formula_sum              "Cs4 F16 V4"
_cell_length_a       7.51915
_cell_length_b       7.52303
_cell_length_c       6.429
_cell_angle_alpha    90
_cell_angle_beta     90
_cell_angle_gamma    90

_space_group_name_H-M_alt    "P 1"
_space_group_IT_number       1

loop_
  _space_group_symop_operation_xyz
  'x, y, z'

loop_
  _atom_site_type_symbol
  _atom_site_label
  _atom_site_symmetry_multiplicity
  _atom_site_fract_x
  _atom_site_fract_y
  _atom_site_fract_z
  _atom_site_occupancy
  Cs  Cs1       1.0  0.25000  0.25000  0.45700  1.0000
  Cs  Cs2       1.0  0.75000  0.25000  0.48900  1.0000
  Cs  Cs3       1.0  0.25000  0.75000  0.51100  1.0000
  Cs  Cs4       1.0  0.75000  0.75000  0.54300  1.0000
  F   F1        1.0  0.25000  0.06490  0.03080  1.0000
  F   F2        1.0  0.25000  0.43500  0.03080  1.0000
  F   F3        1.0  0.56700  0.25000  0.03180  1.0000
  F   F4        1.0  0.93300  0.25000  0.03180  1.0000
  F   F5        1.0  0.51600  0.52800  0.29100  1.0000
  F   F6        1.0  0.98400  0.52800  0.29100  1.0000
  F   F7        1.0  0.51600  0.97200  0.29100  1.0000
  F   F8        1.0  0.98400  0.97200  0.29100  1.0000
  F   F9        1.0  0.01600  0.02750  0.70900  1.0000
  F   F10       1.0  0.48400  0.02750  0.70900  1.0000
  F   F11       1.0  0.01600  0.47200  0.70900  1.0000
  F   F12       1.0  0.48400  0.47200  0.70900  1.0000
  F   F13       1.0  0.06730  0.75000  0.96800  1.0000
  F   F14       1.0  0.43300  0.75000  0.96800  1.0000
  F   F15       1.0  0.75000  0.56500  0.96900  1.0000
  F   F16       1.0  0.75000  0.93500  0.96900  1.0000
  V   V1        1.0  0.00000  0.00000  0.00000  1.0000
  V   V2        1.0  0.50000  0.00000  0.00000  1.0000
  V   V3        1.0  0.00000  0.50000  0.00000  1.0000
  V   V4        1.0  0.50000  0.50000  0.00000  1.0000
