data_image0
_chemical_formula_structural       La8Mn2O2Se12
_chemical_formula_sum              "La8 Mn2 O2 Se12"
_cell_length_a       9.81528
_cell_length_b       9.81547
_cell_length_c       7.12133
_cell_angle_alpha    90
_cell_angle_beta     90
_cell_angle_gamma    119.999

_space_group_name_H-M_alt    "P 1"
_space_group_IT_number       1

loop_
  _space_group_symop_operation_xyz
  'x, y, z'

loop_
  _atom_site_type_symbol
  _atom_site_label
  _atom_site_symmetry_multiplicity
  _atom_site_fract_x
  _atom_site_fract_y
  _atom_site_fract_z
  _atom_site_occupancy
  La  La1       1.0  0.40000  0.20000  0.16100  1.0000
  La  La2       1.0  0.80000  0.20000  0.16100  1.0000
  La  La3       1.0  0.80000  0.60000  0.16100  1.0000
  La  La4       1.0  0.33300  0.66700  0.20800  1.0000
  La  La5       1.0  0.20000  0.80000  0.66100  1.0000
  La  La6       1.0  0.60000  0.80000  0.66100  1.0000
  La  La7       1.0  0.20000  0.40000  0.66100  1.0000
  La  La8       1.0  0.66700  0.33300  0.70800  1.0000
  Mn  Mn1       1.0  0.00000  0.00000  0.49200  1.0000
  Mn  Mn2       1.0  0.00000  0.00000  0.99200  1.0000
  O   O1        1.0  0.66700  0.33300  0.04440  1.0000
  O   O2        1.0  0.33300  0.66700  0.54400  1.0000
  Se  Se1       1.0  0.12600  0.25200  0.26200  1.0000
  Se  Se2       1.0  0.12600  0.87400  0.26200  1.0000
  Se  Se3       1.0  0.74800  0.87400  0.26200  1.0000
  Se  Se4       1.0  0.53000  0.05980  0.44600  1.0000
  Se  Se5       1.0  0.53000  0.47000  0.44600  1.0000
  Se  Se6       1.0  0.94000  0.47000  0.44600  1.0000
  Se  Se7       1.0  0.87400  0.74800  0.76200  1.0000
  Se  Se8       1.0  0.25200  0.12600  0.76200  1.0000
  Se  Se9       1.0  0.87400  0.12600  0.76200  1.0000
  Se  Se10      1.0  0.47000  0.94000  0.94600  1.0000
  Se  Se11      1.0  0.05970  0.53000  0.94600  1.0000
  Se  Se12      1.0  0.47000  0.53000  0.94600  1.0000
