data_image0
_chemical_formula_structural       B8Fe2O14
_chemical_formula_sum              "B8 Fe2 O14"
_cell_length_a       5.18179
_cell_length_b       6.32837
_cell_length_c       6.32837
_cell_angle_alpha    62.3296
_cell_angle_beta     90
_cell_angle_gamma    90

_space_group_name_H-M_alt    "P 1"
_space_group_IT_number       1

loop_
  _space_group_symop_operation_xyz
  'x, y, z'

loop_
  _atom_site_type_symbol
  _atom_site_label
  _atom_site_symmetry_multiplicity
  _atom_site_fract_x
  _atom_site_fract_y
  _atom_site_fract_z
  _atom_site_occupancy
  B   B1        1.0  0.25000  0.68400  0.07930  1.0000
  B   B2        1.0  0.00000  0.29500  0.29500  1.0000
  B   B3        1.0  0.50000  0.29500  0.29500  1.0000
  B   B4        1.0  0.25000  0.92100  0.31600  1.0000
  B   B5        1.0  0.75000  0.07930  0.68400  1.0000
  B   B6        1.0  0.00000  0.70500  0.70500  1.0000
  B   B7        1.0  0.50000  0.70500  0.70500  1.0000
  B   B8        1.0  0.75000  0.31600  0.92100  1.0000
  Fe  Fe1       1.0  0.75000  0.77500  0.22500  1.0000
  Fe  Fe2       1.0  0.25000  0.22500  0.77500  1.0000
  O   O1        1.0  0.25000  0.91400  0.08650  1.0000
  O   O2        1.0  0.02220  0.55000  0.18900  1.0000
  O   O3        1.0  0.47800  0.55000  0.18900  1.0000
  O   O4        1.0  0.75000  0.24200  0.19300  1.0000
  O   O5        1.0  0.25000  0.19300  0.24200  1.0000
  O   O6        1.0  0.02220  0.81100  0.45000  1.0000
  O   O7        1.0  0.47800  0.81100  0.45000  1.0000
  O   O8        1.0  0.52200  0.18900  0.55000  1.0000
  O   O9        1.0  0.97800  0.18900  0.55000  1.0000
  O   O10       1.0  0.75000  0.80700  0.75800  1.0000
  O   O11       1.0  0.25000  0.75800  0.80700  1.0000
  O   O12       1.0  0.52200  0.45000  0.81100  1.0000
  O   O13       1.0  0.97800  0.45000  0.81100  1.0000
  O   O14       1.0  0.75000  0.08650  0.91400  1.0000
