data_image0
_chemical_formula_structural       Ge2LiO6
_chemical_formula_sum              "Ge2 Li1 O6"
_cell_length_a       5.1969
_cell_length_b       5.1969
_cell_length_c       4.64579
_cell_angle_alpha    105.835
_cell_angle_beta     105.835
_cell_angle_gamma    123.285

_space_group_name_H-M_alt    "P 1"
_space_group_IT_number       1

loop_
  _space_group_symop_operation_xyz
  'x, y, z'

loop_
  _atom_site_type_symbol
  _atom_site_label
  _atom_site_symmetry_multiplicity
  _atom_site_fract_x
  _atom_site_fract_y
  _atom_site_fract_z
  _atom_site_occupancy
  Ge  Ge1       1.0  0.83700  0.16300  0.00000  1.0000
  Ge  Ge2       1.0  0.16300  0.83700  0.00000  1.0000
  Li  Li1       1.0  0.50000  0.50000  0.00000  1.0000
  O   O1        1.0  0.96900  0.61300  0.24800  1.0000
  O   O2        1.0  0.61300  0.96900  0.24800  1.0000
  O   O3        1.0  0.26500  0.26500  0.25400  1.0000
  O   O4        1.0  0.73500  0.73500  0.74600  1.0000
  O   O5        1.0  0.38700  0.03110  0.75200  1.0000
  O   O6        1.0  0.03110  0.38700  0.75200  1.0000
