data_image0
_chemical_formula_structural       Cl2CoO8
_chemical_formula_sum              "Cl2 Co1 O8"
_cell_length_a       4.71109
_cell_length_b       4.71109
_cell_length_c       7.44557
_cell_angle_alpha    71.5565
_cell_angle_beta     108.443
_cell_angle_gamma    120

_space_group_name_H-M_alt    "P 1"
_space_group_IT_number       1

loop_
  _space_group_symop_operation_xyz
  'x, y, z'

loop_
  _atom_site_type_symbol
  _atom_site_label
  _atom_site_symmetry_multiplicity
  _atom_site_fract_x
  _atom_site_fract_y
  _atom_site_fract_z
  _atom_site_occupancy
  Cl  Cl1       1.0  0.75100  0.24900  0.25300  1.0000
  Cl  Cl2       1.0  0.24900  0.75100  0.74700  1.0000
  Co  Co1       1.0  0.00000  0.00000  0.00000  1.0000
  O   O1        1.0  0.72800  0.98200  0.17800  1.0000
  O   O2        1.0  0.43200  0.27200  0.17800  1.0000
  O   O3        1.0  0.01770  0.56800  0.17800  1.0000
  O   O4        1.0  0.81900  0.18100  0.45700  1.0000
  O   O5        1.0  0.18100  0.81900  0.54300  1.0000
  O   O6        1.0  0.98200  0.43200  0.82200  1.0000
  O   O7        1.0  0.56800  0.72800  0.82200  1.0000
  O   O8        1.0  0.27200  0.01770  0.82200  1.0000
