data_image0
_chemical_formula_structural       B16Ru4Tb4
_chemical_formula_sum              "B16 Ru4 Tb4"
_cell_length_a       5.96485
_cell_length_b       11.5373
_cell_length_c       3.56454
_cell_angle_alpha    90
_cell_angle_beta     90
_cell_angle_gamma    90

_space_group_name_H-M_alt    "P 1"
_space_group_IT_number       1

loop_
  _space_group_symop_operation_xyz
  'x, y, z'

loop_
  _atom_site_type_symbol
  _atom_site_label
  _atom_site_symmetry_multiplicity
  _atom_site_fract_x
  _atom_site_fract_y
  _atom_site_fract_z
  _atom_site_occupancy
  B   B1        1.0  0.86400  0.03030  0.50000  1.0000
  B   B2        1.0  0.38800  0.04660  0.50000  1.0000
  B   B3        1.0  0.78900  0.18500  0.50000  1.0000
  B   B4        1.0  0.47600  0.19200  0.50000  1.0000
  B   B5        1.0  0.97600  0.30800  0.50000  1.0000
  B   B6        1.0  0.28900  0.31500  0.50000  1.0000
  B   B7        1.0  0.88800  0.45300  0.50000  1.0000
  B   B8        1.0  0.36400  0.47000  0.50000  1.0000
  B   B9        1.0  0.63600  0.53000  0.50000  1.0000
  B   B10       1.0  0.11200  0.54700  0.50000  1.0000
  B   B11       1.0  0.71100  0.68500  0.50000  1.0000
  B   B12       1.0  0.02410  0.69200  0.50000  1.0000
  B   B13       1.0  0.52400  0.80800  0.50000  1.0000
  B   B14       1.0  0.21100  0.81500  0.50000  1.0000
  B   B15       1.0  0.61200  0.95300  0.50000  1.0000
  B   B16       1.0  0.13600  0.97000  0.50000  1.0000
  Ru  Ru1       1.0  0.64000  0.09220  0.00000  1.0000
  Ru  Ru2       1.0  0.14000  0.40800  0.00000  1.0000
  Ru  Ru3       1.0  0.86000  0.59200  0.00000  1.0000
  Ru  Ru4       1.0  0.36000  0.90800  0.00000  1.0000
  Tb  Tb1       1.0  0.12900  0.15000  0.00000  1.0000
  Tb  Tb2       1.0  0.62900  0.35000  0.00000  1.0000
  Tb  Tb3       1.0  0.37100  0.65000  0.00000  1.0000
  Tb  Tb4       1.0  0.87100  0.85000  0.00000  1.0000
