data_image0
_chemical_formula_structural       B16Re4Tb4
_chemical_formula_sum              "B16 Re4 Tb4"
_cell_length_a       5.97647
_cell_length_b       11.5634
_cell_length_c       3.6174
_cell_angle_alpha    90
_cell_angle_beta     90
_cell_angle_gamma    90

_space_group_name_H-M_alt    "P 1"
_space_group_IT_number       1

loop_
  _space_group_symop_operation_xyz
  'x, y, z'

loop_
  _atom_site_type_symbol
  _atom_site_label
  _atom_site_symmetry_multiplicity
  _atom_site_fract_x
  _atom_site_fract_y
  _atom_site_fract_z
  _atom_site_occupancy
  B   B1        1.0  0.86300  0.03160  0.50000  1.0000
  B   B2        1.0  0.38600  0.04720  0.50000  1.0000
  B   B3        1.0  0.78700  0.18500  0.50000  1.0000
  B   B4        1.0  0.47700  0.19200  0.50000  1.0000
  B   B5        1.0  0.97700  0.30800  0.50000  1.0000
  B   B6        1.0  0.28700  0.31500  0.50000  1.0000
  B   B7        1.0  0.88600  0.45300  0.50000  1.0000
  B   B8        1.0  0.36300  0.46800  0.50000  1.0000
  B   B9        1.0  0.63700  0.53200  0.50000  1.0000
  B   B10       1.0  0.11400  0.54700  0.50000  1.0000
  B   B11       1.0  0.71300  0.68500  0.50000  1.0000
  B   B12       1.0  0.02310  0.69200  0.50000  1.0000
  B   B13       1.0  0.52300  0.80800  0.50000  1.0000
  B   B14       1.0  0.21300  0.81500  0.50000  1.0000
  B   B15       1.0  0.61400  0.95300  0.50000  1.0000
  B   B16       1.0  0.13700  0.96800  0.50000  1.0000
  Re  Re1       1.0  0.63200  0.08690  0.00000  1.0000
  Re  Re2       1.0  0.13200  0.41300  0.00000  1.0000
  Re  Re3       1.0  0.86800  0.58700  0.00000  1.0000
  Re  Re4       1.0  0.36800  0.91300  0.00000  1.0000
  Tb  Tb1       1.0  0.12600  0.15100  0.00000  1.0000
  Tb  Tb2       1.0  0.62600  0.34900  0.00000  1.0000
  Tb  Tb3       1.0  0.37400  0.65100  0.00000  1.0000
  Tb  Tb4       1.0  0.87400  0.84900  0.00000  1.0000
