data_image0
_chemical_formula_structural       Ga2In2O14Zn8
_chemical_formula_sum              "Ga2 In2 O14 Zn8"
_cell_length_a       3.29473
_cell_length_b       3.29465
_cell_length_c       32.9898
_cell_angle_alpha    90
_cell_angle_beta     90
_cell_angle_gamma    120.001

_space_group_name_H-M_alt    "P 1"
_space_group_IT_number       1

loop_
  _space_group_symop_operation_xyz
  'x, y, z'

loop_
  _atom_site_type_symbol
  _atom_site_label
  _atom_site_symmetry_multiplicity
  _atom_site_fract_x
  _atom_site_fract_y
  _atom_site_fract_z
  _atom_site_occupancy
  Ga  Ga1       1.0  0.66700  0.33300  0.25000  1.0000
  Ga  Ga2       1.0  0.33300  0.66700  0.75000  1.0000
  In  In1       1.0  0.00000  0.00000  0.00000  1.0000
  In  In2       1.0  0.00000  0.00000  0.50000  1.0000
  O   O1        1.0  0.66700  0.33300  0.03310  1.0000
  O   O2        1.0  0.00000  0.00000  0.11100  1.0000
  O   O3        1.0  0.66700  0.33300  0.19000  1.0000
  O   O4        1.0  0.00000  0.00000  0.25000  1.0000
  O   O5        1.0  0.66700  0.33300  0.31000  1.0000
  O   O6        1.0  0.00000  0.00000  0.38900  1.0000
  O   O7        1.0  0.66700  0.33300  0.46700  1.0000
  O   O8        1.0  0.33300  0.66700  0.53300  1.0000
  O   O9        1.0  0.00000  0.00000  0.61100  1.0000
  O   O10       1.0  0.33300  0.66700  0.69000  1.0000
  O   O11       1.0  0.00000  0.00000  0.75000  1.0000
  O   O12       1.0  0.33300  0.66700  0.81000  1.0000
  O   O13       1.0  0.00000  0.00000  0.88900  1.0000
  O   O14       1.0  0.33300  0.66700  0.96700  1.0000
  Zn  Zn1       1.0  0.66700  0.33300  0.09260  1.0000
  Zn  Zn2       1.0  0.00000  0.00000  0.17100  1.0000
  Zn  Zn3       1.0  0.00000  0.00000  0.32900  1.0000
  Zn  Zn4       1.0  0.66700  0.33300  0.40700  1.0000
  Zn  Zn5       1.0  0.33300  0.66700  0.59300  1.0000
  Zn  Zn6       1.0  0.00000  0.00000  0.67100  1.0000
  Zn  Zn7       1.0  0.00000  0.00000  0.82900  1.0000
  Zn  Zn8       1.0  0.33300  0.66700  0.90700  1.0000
