data_image0
_chemical_formula_structural       Mn2O8Rb4
_chemical_formula_sum              "Mn2 O8 Rb4"
_cell_length_a       7.05404
_cell_length_b       7.05404
_cell_length_c       7.05404
_cell_angle_alpha    119.918
_cell_angle_beta     90.1414
_cell_angle_gamma    119.918

_space_group_name_H-M_alt    "P 1"
_space_group_IT_number       1

loop_
  _space_group_symop_operation_xyz
  'x, y, z'

loop_
  _atom_site_type_symbol
  _atom_site_label
  _atom_site_symmetry_multiplicity
  _atom_site_fract_x
  _atom_site_fract_y
  _atom_site_fract_z
  _atom_site_occupancy
  Mn  Mn1       1.0  0.00000  0.00000  0.00000  1.0000
  Mn  Mn2       1.0  0.75000  0.50000  0.25000  1.0000
  O   O1        1.0  0.09490  0.19400  0.28900  1.0000
  O   O2        1.0  0.65000  0.30600  0.34500  1.0000
  O   O3        1.0  0.03940  0.69400  0.34500  1.0000
  O   O4        1.0  0.65500  0.69400  0.35000  1.0000
  O   O5        1.0  0.09490  0.80600  0.90000  1.0000
  O   O6        1.0  0.71100  0.80600  0.90500  1.0000
  O   O7        1.0  0.09950  0.19400  0.90500  1.0000
  O   O8        1.0  0.65500  0.30600  0.96100  1.0000
  Rb  Rb1       1.0  0.37500  0.75000  0.12500  1.0000
  Rb  Rb2       1.0  0.37500  0.25000  0.62500  1.0000
  Rb  Rb3       1.0  0.87500  0.25000  0.62500  1.0000
  Rb  Rb4       1.0  0.37500  0.75000  0.62500  1.0000
