data_image0
_chemical_formula_structural       CoO6Pb2W
_chemical_formula_sum              "Co1 O6 Pb2 W1"
_cell_length_a       5.64333
_cell_length_b       5.6142
_cell_length_c       5.61444
_cell_angle_alpha    119.982
_cell_angle_beta     119.176
_cell_angle_gamma    90.5831

_space_group_name_H-M_alt    "P 1"
_space_group_IT_number       1

loop_
  _space_group_symop_operation_xyz
  'x, y, z'

loop_
  _atom_site_type_symbol
  _atom_site_label
  _atom_site_symmetry_multiplicity
  _atom_site_fract_x
  _atom_site_fract_y
  _atom_site_fract_z
  _atom_site_occupancy
  Co  Co1       1.0  0.50000  0.50000  0.00000  1.0000
  O   O1        1.0  0.79400  0.27600  0.00349  1.0000
  O   O2        1.0  0.30000  0.24000  0.06010  1.0000
  O   O3        1.0  0.20600  0.20900  0.48200  1.0000
  O   O4        1.0  0.79400  0.79100  0.51800  1.0000
  O   O5        1.0  0.70000  0.76000  0.94000  1.0000
  O   O6        1.0  0.20600  0.72400  0.99700  1.0000
  Pb  Pb1       1.0  0.24500  0.75100  0.49400  1.0000
  Pb  Pb2       1.0  0.75500  0.24900  0.50600  1.0000
  W   W1        1.0  0.00000  0.00000  0.00000  1.0000
