data_image0
_chemical_formula_structural       Ba4Nb4O11
_chemical_formula_sum              "Ba4 Nb4 O11"
_cell_length_a       5.83107
_cell_length_b       5.83188
_cell_length_c       8.23548
_cell_angle_alpha    90.0013
_cell_angle_beta     90.0014
_cell_angle_gamma    89.8396

_space_group_name_H-M_alt    "P 1"
_space_group_IT_number       1

loop_
  _space_group_symop_operation_xyz
  'x, y, z'

loop_
  _atom_site_type_symbol
  _atom_site_label
  _atom_site_symmetry_multiplicity
  _atom_site_fract_x
  _atom_site_fract_y
  _atom_site_fract_z
  _atom_site_occupancy
  Ba  Ba1       1.0  0.00000  0.00000  0.25000  1.0000
  Ba  Ba2       1.0  0.50000  0.50000  0.25000  1.0000
  Ba  Ba3       1.0  0.50000  0.50000  0.75000  1.0000
  Ba  Ba4       1.0  0.00000  0.00028  0.75000  1.0000
  Nb  Nb1       1.0  0.00085  0.50100  0.00000  1.0000
  Nb  Nb2       1.0  0.49900  0.99900  0.00000  1.0000
  Nb  Nb3       1.0  0.00046  0.50000  0.50000  1.0000
  Nb  Nb4       1.0  0.50000  0.00000  0.50000  1.0000
  O   O1        1.0  0.75100  0.75000  0.00039  1.0000
  O   O2        1.0  0.99700  0.49600  0.24900  1.0000
  O   O3        1.0  0.50300  0.00390  0.24900  1.0000
  O   O4        1.0  0.74900  0.25100  0.50000  1.0000
  O   O5        1.0  0.75100  0.75100  0.50000  1.0000
  O   O6        1.0  0.25100  0.74900  0.50000  1.0000
  O   O7        1.0  0.24900  0.24900  0.50000  1.0000
  O   O8        1.0  0.99500  0.49600  0.75100  1.0000
  O   O9        1.0  0.50500  0.00399  0.75100  1.0000
  O   O10       1.0  0.25100  0.74900  0.00000  1.0000
  O   O11       1.0  0.25000  0.24900  0.00000  1.0000
