data_image0
_chemical_formula_structural       Eu4Hf4O11
_chemical_formula_sum              "Eu4 Hf4 O11"
_cell_length_a       5.63877
_cell_length_b       5.73018
_cell_length_c       7.95418
_cell_angle_alpha    90
_cell_angle_beta     90
_cell_angle_gamma    90.0551

_space_group_name_H-M_alt    "P 1"
_space_group_IT_number       1

loop_
  _space_group_symop_operation_xyz
  'x, y, z'

loop_
  _atom_site_type_symbol
  _atom_site_label
  _atom_site_symmetry_multiplicity
  _atom_site_fract_x
  _atom_site_fract_y
  _atom_site_fract_z
  _atom_site_occupancy
  Eu  Eu1       1.0  0.99300  0.02770  0.25000  1.0000
  Eu  Eu2       1.0  0.52100  0.54300  0.25000  1.0000
  Eu  Eu3       1.0  0.49100  0.46100  0.75000  1.0000
  Eu  Eu4       1.0  0.00739  0.95700  0.75000  1.0000
  Hf  Hf1       1.0  0.50000  0.00093  0.00060  1.0000
  Hf  Hf2       1.0  0.00000  0.49900  0.00302  1.0000
  Hf  Hf3       1.0  0.00000  0.49900  0.49700  1.0000
  Hf  Hf4       1.0  0.50000  0.00093  0.49900  1.0000
  O   O1        1.0  0.79100  0.79200  0.04290  1.0000
  O   O2        1.0  0.70800  0.29200  0.04560  1.0000
  O   O3        1.0  0.41300  0.97300  0.25000  1.0000
  O   O4        1.0  0.70800  0.29200  0.45400  1.0000
  O   O5        1.0  0.79100  0.79200  0.45700  1.0000
  O   O6        1.0  0.20500  0.21000  0.54200  1.0000
  O   O7        1.0  0.29100  0.70800  0.54500  1.0000
  O   O8        1.0  0.58600  0.02940  0.75000  1.0000
  O   O9        1.0  0.91000  0.53100  0.75000  1.0000
  O   O10       1.0  0.29100  0.70800  0.95500  1.0000
  O   O11       1.0  0.20500  0.21000  0.95800  1.0000
