data_image0
_chemical_formula_structural       Ce4O11V4
_chemical_formula_sum              "Ce4 O11 V4"
_cell_length_a       5.52951
_cell_length_b       5.65633
_cell_length_c       7.83221
_cell_angle_alpha    90
_cell_angle_beta     90
_cell_angle_gamma    90.7992

_space_group_name_H-M_alt    "P 1"
_space_group_IT_number       1

loop_
  _space_group_symop_operation_xyz
  'x, y, z'

loop_
  _atom_site_type_symbol
  _atom_site_label
  _atom_site_symmetry_multiplicity
  _atom_site_fract_x
  _atom_site_fract_y
  _atom_site_fract_z
  _atom_site_occupancy
  Ce  Ce1       1.0  0.99300  0.04200  0.25000  1.0000
  Ce  Ce2       1.0  0.51500  0.54400  0.25000  1.0000
  Ce  Ce3       1.0  0.48900  0.45800  0.75000  1.0000
  Ce  Ce4       1.0  0.00714  0.95300  0.75000  1.0000
  O   O1        1.0  0.71000  0.28900  0.04320  1.0000
  O   O2        1.0  0.79300  0.78400  0.04590  1.0000
  O   O3        1.0  0.42000  0.98100  0.25000  1.0000
  O   O4        1.0  0.79300  0.78400  0.45400  1.0000
  O   O5        1.0  0.71000  0.28900  0.45700  1.0000
  O   O6        1.0  0.29200  0.70800  0.53700  1.0000
  O   O7        1.0  0.20500  0.21600  0.53900  1.0000
  O   O8        1.0  0.57700  0.02000  0.75000  1.0000
  O   O9        1.0  0.91300  0.52500  0.75000  1.0000
  O   O10       1.0  0.20500  0.21600  0.96100  1.0000
  O   O11       1.0  0.29200  0.70800  0.96300  1.0000
  V   V1        1.0  0.50000  0.00051  0.00116  1.0000
  V   V2        1.0  0.00016  0.50100  0.00790  1.0000
  V   V3        1.0  0.00016  0.50100  0.49200  1.0000
  V   V4        1.0  0.50000  0.00051  0.49900  1.0000
