data_image0
_chemical_formula_structural       La4O19Re6
_chemical_formula_sum              "La4 O19 Re6"
_cell_length_a       7.8172
_cell_length_b       7.8172
_cell_length_c       7.8172
_cell_angle_alpha    109.471
_cell_angle_beta     109.471
_cell_angle_gamma    109.471

_space_group_name_H-M_alt    "P 1"
_space_group_IT_number       1

loop_
  _space_group_symop_operation_xyz
  'x, y, z'

loop_
  _atom_site_type_symbol
  _atom_site_label
  _atom_site_symmetry_multiplicity
  _atom_site_fract_x
  _atom_site_fract_y
  _atom_site_fract_z
  _atom_site_occupancy
  La  La1       1.0  0.31600  0.00000  0.00000  1.0000
  La  La2       1.0  0.00000  0.31600  0.00000  1.0000
  La  La3       1.0  0.00000  0.00000  0.31600  1.0000
  La  La4       1.0  0.68400  0.68400  0.68400  1.0000
  O   O1        1.0  0.00000  0.00000  0.00000  1.0000
  O   O2        1.0  0.32000  0.32000  0.00000  1.0000
  O   O3        1.0  0.68000  0.68000  0.00000  1.0000
  O   O4        1.0  0.31700  0.69500  0.05700  1.0000
  O   O5        1.0  0.94300  0.63800  0.26000  1.0000
  O   O6        1.0  0.62200  0.36200  0.30500  1.0000
  O   O7        1.0  0.69500  0.05700  0.31700  1.0000
  O   O8        1.0  0.32000  0.00000  0.32000  1.0000
  O   O9        1.0  0.00000  0.32000  0.32000  1.0000
  O   O10       1.0  0.30500  0.62200  0.36200  1.0000
  O   O11       1.0  0.68300  0.74000  0.37800  1.0000
  O   O12       1.0  0.36200  0.30500  0.62200  1.0000
  O   O13       1.0  0.26000  0.94300  0.63800  1.0000
  O   O14       1.0  0.68000  0.00000  0.68000  1.0000
  O   O15       1.0  0.00000  0.68000  0.68000  1.0000
  O   O16       1.0  0.74000  0.37800  0.68300  1.0000
  O   O17       1.0  0.05700  0.31700  0.69500  1.0000
  O   O18       1.0  0.37800  0.68300  0.74000  1.0000
  O   O19       1.0  0.63800  0.26000  0.94300  1.0000
  Re  Re1       1.0  0.63300  0.50000  0.13300  1.0000
  Re  Re2       1.0  0.50000  0.86700  0.36700  1.0000
  Re  Re3       1.0  0.86700  0.36700  0.50000  1.0000
  Re  Re4       1.0  0.13300  0.63300  0.50000  1.0000
  Re  Re5       1.0  0.50000  0.13300  0.63300  1.0000
  Re  Re6       1.0  0.36700  0.50000  0.86700  1.0000
