data_image0
_chemical_formula_structural       Cu7Zn16Zr6
_chemical_formula_sum              "Cu7 Zn16 Zr6"
_cell_length_a       8.55357
_cell_length_b       8.55357
_cell_length_c       8.55357
_cell_angle_alpha    120
_cell_angle_beta     90
_cell_angle_gamma    120

_space_group_name_H-M_alt    "P 1"
_space_group_IT_number       1

loop_
  _space_group_symop_operation_xyz
  'x, y, z'

loop_
  _atom_site_type_symbol
  _atom_site_label
  _atom_site_symmetry_multiplicity
  _atom_site_fract_x
  _atom_site_fract_y
  _atom_site_fract_z
  _atom_site_occupancy
  Cu  Cu1       1.0  0.00000  0.00000  0.00000  1.0000
  Cu  Cu2       1.0  0.50000  0.00000  0.00000  1.0000
  Cu  Cu3       1.0  0.00000  0.50000  0.00000  1.0000
  Cu  Cu4       1.0  0.50000  0.50000  0.00000  1.0000
  Cu  Cu5       1.0  0.00000  0.00000  0.50000  1.0000
  Cu  Cu6       1.0  0.00000  0.50000  0.50000  1.0000
  Cu  Cu7       1.0  0.50000  0.50000  0.50000  1.0000
  Zn  Zn1       1.0  0.66700  0.33400  0.00140  1.0000
  Zn  Zn2       1.0  0.35900  0.24000  0.12000  1.0000
  Zn  Zn3       1.0  0.88000  0.24000  0.12000  1.0000
  Zn  Zn4       1.0  0.88000  0.76000  0.12000  1.0000
  Zn  Zn5       1.0  0.66700  0.33400  0.33300  1.0000
  Zn  Zn6       1.0  0.66700  0.66600  0.33300  1.0000
  Zn  Zn7       1.0  0.99900  0.66600  0.33300  1.0000
  Zn  Zn8       1.0  0.12000  0.24000  0.35900  1.0000
  Zn  Zn9       1.0  0.88000  0.76000  0.64100  1.0000
  Zn  Zn10      1.0  0.00140  0.33400  0.66700  1.0000
  Zn  Zn11      1.0  0.33300  0.33400  0.66700  1.0000
  Zn  Zn12      1.0  0.33300  0.66600  0.66700  1.0000
  Zn  Zn13      1.0  0.12000  0.24000  0.88000  1.0000
  Zn  Zn14      1.0  0.12000  0.76000  0.88000  1.0000
  Zn  Zn15      1.0  0.64100  0.76000  0.88000  1.0000
  Zn  Zn16      1.0  0.33300  0.66600  0.99900  1.0000
  Zr  Zr1       1.0  0.30600  0.00000  0.30600  1.0000
  Zr  Zr2       1.0  0.69400  0.00000  0.30600  1.0000
  Zr  Zr3       1.0  0.30600  0.61100  0.30600  1.0000
  Zr  Zr4       1.0  0.30600  0.00000  0.69400  1.0000
  Zr  Zr5       1.0  0.69400  0.38900  0.69400  1.0000
  Zr  Zr6       1.0  0.69400  0.00000  0.69400  1.0000
