data_image0
_chemical_formula_structural       C2H10Nd2O14P2
_chemical_formula_sum              "C2 H10 Nd2 O14 P2"
_cell_length_a       6.5267
_cell_length_b       6.94012
_cell_length_c       7.42498
_cell_angle_alpha    109.909
_cell_angle_beta     93.4682
_cell_angle_gamma    91.3602

_space_group_name_H-M_alt    "P 1"
_space_group_IT_number       1

loop_
  _space_group_symop_operation_xyz
  'x, y, z'

loop_
  _atom_site_type_symbol
  _atom_site_label
  _atom_site_symmetry_multiplicity
  _atom_site_fract_x
  _atom_site_fract_y
  _atom_site_fract_z
  _atom_site_occupancy
  C   C1        1.0  0.93900  0.09270  0.49700  1.0000
  C   C2        1.0  0.06130  0.90700  0.50300  1.0000
  H   H1        1.0  0.58700  0.26600  0.18800  1.0000
  H   H2        1.0  0.17200  0.53200  0.34200  1.0000
  H   H3        1.0  0.53700  0.76300  0.37500  1.0000
  H   H4        1.0  0.29400  0.34000  0.37700  1.0000
  H   H5        1.0  0.53900  0.14000  0.41900  1.0000
  H   H6        1.0  0.46100  0.86000  0.58100  1.0000
  H   H7        1.0  0.70600  0.66000  0.62300  1.0000
  H   H8        1.0  0.46300  0.23700  0.62500  1.0000
  H   H9        1.0  0.82800  0.46800  0.65800  1.0000
  H   H10       1.0  0.41300  0.73400  0.81200  1.0000
  Nd  Nd1       1.0  0.86900  0.77100  0.05710  1.0000
  Nd  Nd2       1.0  0.13100  0.22900  0.94300  1.0000
  O   O1        1.0  0.81900  0.42500  0.04360  1.0000
  O   O2        1.0  0.21000  0.95000  0.05370  1.0000
  O   O3        1.0  0.52000  0.76300  0.13000  1.0000
  O   O4        1.0  0.22000  0.39100  0.28100  1.0000
  O   O5        1.0  0.83700  0.07770  0.34200  1.0000
  O   O6        1.0  0.05080  0.75200  0.35100  1.0000
  O   O7        1.0  0.42200  0.20700  0.48700  1.0000
  O   O8        1.0  0.57800  0.79300  0.51300  1.0000
  O   O9        1.0  0.94900  0.24800  0.64900  1.0000
  O   O10       1.0  0.16300  0.92200  0.65800  1.0000
  O   O11       1.0  0.78000  0.60900  0.71900  1.0000
  O   O12       1.0  0.48000  0.23700  0.87000  1.0000
  O   O13       1.0  0.79000  0.04990  0.94600  1.0000
  O   O14       1.0  0.18100  0.57500  0.95600  1.0000
  P   P1        1.0  0.66300  0.24500  0.01050  1.0000
  P   P2        1.0  0.33700  0.75500  0.98900  1.0000
