data_image0
_chemical_formula_structural       Ba6Cr4O18W2
_chemical_formula_sum              "Ba6 Cr4 O18 W2"
_cell_length_a       5.72143
_cell_length_b       5.72143
_cell_length_c       14.121
_cell_angle_alpha    90
_cell_angle_beta     90
_cell_angle_gamma    120

_space_group_name_H-M_alt    "P 1"
_space_group_IT_number       1

loop_
  _space_group_symop_operation_xyz
  'x, y, z'

loop_
  _atom_site_type_symbol
  _atom_site_label
  _atom_site_symmetry_multiplicity
  _atom_site_fract_x
  _atom_site_fract_y
  _atom_site_fract_z
  _atom_site_occupancy
  Ba  Ba1       1.0  0.33300  0.66700  0.10200  1.0000
  Ba  Ba2       1.0  0.00000  0.00000  0.25000  1.0000
  Ba  Ba3       1.0  0.33300  0.66700  0.39800  1.0000
  Ba  Ba4       1.0  0.66700  0.33300  0.60200  1.0000
  Ba  Ba5       1.0  0.00000  0.00000  0.75000  1.0000
  Ba  Ba6       1.0  0.66700  0.33300  0.89800  1.0000
  Cr  Cr1       1.0  0.66700  0.33300  0.15800  1.0000
  Cr  Cr2       1.0  0.66700  0.33300  0.34200  1.0000
  Cr  Cr3       1.0  0.33300  0.66700  0.65800  1.0000
  Cr  Cr4       1.0  0.33300  0.66700  0.84200  1.0000
  O   O1        1.0  0.83900  0.16100  0.07820  1.0000
  O   O2        1.0  0.32100  0.16100  0.07820  1.0000
  O   O3        1.0  0.83900  0.67900  0.07820  1.0000
  O   O4        1.0  0.51500  0.02960  0.25000  1.0000
  O   O5        1.0  0.97000  0.48500  0.25000  1.0000
  O   O6        1.0  0.51500  0.48500  0.25000  1.0000
  O   O7        1.0  0.83900  0.16100  0.42200  1.0000
  O   O8        1.0  0.32100  0.16100  0.42200  1.0000
  O   O9        1.0  0.83900  0.67900  0.42200  1.0000
  O   O10       1.0  0.16100  0.32100  0.57800  1.0000
  O   O11       1.0  0.16100  0.83900  0.57800  1.0000
  O   O12       1.0  0.67900  0.83900  0.57800  1.0000
  O   O13       1.0  0.02960  0.51500  0.75000  1.0000
  O   O14       1.0  0.48500  0.51500  0.75000  1.0000
  O   O15       1.0  0.48500  0.97000  0.75000  1.0000
  O   O16       1.0  0.67900  0.83900  0.92200  1.0000
  O   O17       1.0  0.16100  0.32100  0.92200  1.0000
  O   O18       1.0  0.16100  0.83900  0.92200  1.0000
  W   W1        1.0  0.00000  0.00000  0.00000  1.0000
  W   W2        1.0  0.00000  0.00000  0.50000  1.0000
