data_image0
_chemical_formula_structural       B2C6H18O6
_chemical_formula_sum              "B2 C6 H18 O6"
_cell_length_a       6.85514
_cell_length_b       6.85514
_cell_length_c       6.24036
_cell_angle_alpha    90
_cell_angle_beta     90
_cell_angle_gamma    120

_space_group_name_H-M_alt    "P 1"
_space_group_IT_number       1

loop_
  _space_group_symop_operation_xyz
  'x, y, z'

loop_
  _atom_site_type_symbol
  _atom_site_label
  _atom_site_symmetry_multiplicity
  _atom_site_fract_x
  _atom_site_fract_y
  _atom_site_fract_z
  _atom_site_occupancy
  B   B1        1.0  0.00000  0.00000  0.25000  1.0000
  B   B2        1.0  0.00000  0.00000  0.75000  1.0000
  C   C1        1.0  0.67000  0.04210  0.25000  1.0000
  C   C2        1.0  0.37200  0.33000  0.25000  1.0000
  C   C3        1.0  0.95800  0.62800  0.25000  1.0000
  C   C4        1.0  0.04210  0.37200  0.75000  1.0000
  C   C5        1.0  0.62800  0.67000  0.75000  1.0000
  C   C6        1.0  0.33000  0.95800  0.75000  1.0000
  H   H1        1.0  0.72100  0.14900  0.10600  1.0000
  H   H2        1.0  0.42800  0.27900  0.10600  1.0000
  H   H3        1.0  0.85100  0.57200  0.10600  1.0000
  H   H4        1.0  0.44700  0.51400  0.25000  1.0000
  H   H5        1.0  0.06700  0.55300  0.25000  1.0000
  H   H6        1.0  0.48600  0.93300  0.25000  1.0000
  H   H7        1.0  0.72100  0.14900  0.39400  1.0000
  H   H8        1.0  0.42800  0.27900  0.39400  1.0000
  H   H9        1.0  0.85100  0.57200  0.39400  1.0000
  H   H10       1.0  0.14900  0.42800  0.60600  1.0000
  H   H11       1.0  0.57200  0.72100  0.60600  1.0000
  H   H12       1.0  0.27900  0.85100  0.60600  1.0000
  H   H13       1.0  0.51400  0.06700  0.75000  1.0000
  H   H14       1.0  0.93300  0.44700  0.75000  1.0000
  H   H15       1.0  0.55300  0.48600  0.75000  1.0000
  H   H16       1.0  0.14900  0.42800  0.89400  1.0000
  H   H17       1.0  0.57200  0.72100  0.89400  1.0000
  H   H18       1.0  0.27900  0.85100  0.89400  1.0000
  O   O1        1.0  0.13200  0.23100  0.25000  1.0000
  O   O2        1.0  0.09850  0.86800  0.25000  1.0000
  O   O3        1.0  0.76900  0.90100  0.25000  1.0000
  O   O4        1.0  0.23100  0.09850  0.75000  1.0000
  O   O5        1.0  0.90100  0.13200  0.75000  1.0000
  O   O6        1.0  0.86800  0.76900  0.75000  1.0000
