data_image0
_chemical_formula_structural       Ag2C4H4O18S2Tb2
_chemical_formula_sum              "Ag2 C4 H4 O18 S2 Tb2"
_cell_length_a       6.84037
_cell_length_b       7.5876
_cell_length_c       8.94928
_cell_angle_alpha    113.089
_cell_angle_beta     90
_cell_angle_gamma    116.792

_space_group_name_H-M_alt    "P 1"
_space_group_IT_number       1

loop_
  _space_group_symop_operation_xyz
  'x, y, z'

loop_
  _atom_site_type_symbol
  _atom_site_label
  _atom_site_symmetry_multiplicity
  _atom_site_fract_x
  _atom_site_fract_y
  _atom_site_fract_z
  _atom_site_occupancy
  Ag  Ag1       1.0  0.91600  0.83300  0.33200  1.0000
  Ag  Ag2       1.0  0.08370  0.16700  0.66800  1.0000
  C   C1        1.0  0.98200  0.96500  0.07040  1.0000
  C   C2        1.0  0.39000  0.00000  0.50000  1.0000
  C   C3        1.0  0.61000  0.00000  0.50000  1.0000
  C   C4        1.0  0.01750  0.03500  0.93000  1.0000
  H   H1        1.0  0.69200  0.38400  0.01940  1.0000
  H   H2        1.0  0.42000  0.84000  0.14600  1.0000
  H   H3        1.0  0.58000  0.16000  0.85400  1.0000
  H   H4        1.0  0.30800  0.61600  0.98100  1.0000
  O   O1        1.0  0.88000  0.76100  0.03040  1.0000
  O   O2        1.0  0.33900  0.67800  0.10200  1.0000
  O   O3        1.0  0.52200  0.39100  0.21500  1.0000
  O   O4        1.0  0.86900  0.39100  0.21500  1.0000
  O   O5        1.0  0.05730  0.11500  0.21800  1.0000
  O   O6        1.0  0.55300  0.10600  0.25800  1.0000
  O   O7        1.0  0.21600  0.81900  0.41300  1.0000
  O   O8        1.0  0.60200  0.81900  0.41300  1.0000
  O   O9        1.0  0.74200  0.48400  0.47400  1.0000
  O   O10       1.0  0.25800  0.51600  0.52600  1.0000
  O   O11       1.0  0.39800  0.18100  0.58700  1.0000
  O   O12       1.0  0.78400  0.18100  0.58700  1.0000
  O   O13       1.0  0.44700  0.89400  0.74200  1.0000
  O   O14       1.0  0.94300  0.88500  0.78200  1.0000
  O   O15       1.0  0.13100  0.60900  0.78500  1.0000
  O   O16       1.0  0.47800  0.60900  0.78500  1.0000
  O   O17       1.0  0.66100  0.32200  0.89800  1.0000
  O   O18       1.0  0.12000  0.23900  0.97000  1.0000
  S   S1        1.0  0.66900  0.33800  0.29200  1.0000
  S   S2        1.0  0.33100  0.66200  0.70800  1.0000
  Tb  Tb1       1.0  0.24500  0.48900  0.26200  1.0000
  Tb  Tb2       1.0  0.75500  0.51100  0.73800  1.0000
