data_image0
_chemical_formula_structural       C4H12P4S12
_chemical_formula_sum              "C4 H12 P4 S12"
_cell_length_a       8.31342
_cell_length_b       8.33926
_cell_length_c       8.77321
_cell_angle_alpha    90
_cell_angle_beta     110.199
_cell_angle_gamma    90

_space_group_name_H-M_alt    "P 1"
_space_group_IT_number       1

loop_
  _space_group_symop_operation_xyz
  'x, y, z'

loop_
  _atom_site_type_symbol
  _atom_site_label
  _atom_site_symmetry_multiplicity
  _atom_site_fract_x
  _atom_site_fract_y
  _atom_site_fract_z
  _atom_site_occupancy
  C   C1        1.0  0.89300  0.76600  0.21100  1.0000
  C   C2        1.0  0.39300  0.73400  0.21100  1.0000
  C   C3        1.0  0.60700  0.26600  0.78900  1.0000
  C   C4        1.0  0.10700  0.23400  0.78900  1.0000
  H   H1        1.0  0.85200  0.84200  0.10200  1.0000
  H   H2        1.0  0.35200  0.65800  0.10200  1.0000
  H   H3        1.0  0.52800  0.71100  0.28100  1.0000
  H   H4        1.0  0.02830  0.78900  0.28100  1.0000
  H   H5        1.0  0.81300  0.79100  0.28500  1.0000
  H   H6        1.0  0.31300  0.70900  0.28500  1.0000
  H   H7        1.0  0.68700  0.29100  0.71500  1.0000
  H   H8        1.0  0.18700  0.20900  0.71500  1.0000
  H   H9        1.0  0.97200  0.21100  0.71900  1.0000
  H   H10       1.0  0.47200  0.28900  0.71900  1.0000
  H   H11       1.0  0.64800  0.34200  0.89800  1.0000
  H   H12       1.0  0.14800  0.15800  0.89800  1.0000
  P   P1        1.0  0.94200  0.42000  0.34100  1.0000
  P   P2        1.0  0.44200  0.08040  0.34100  1.0000
  P   P3        1.0  0.55800  0.92000  0.65900  1.0000
  P   P4        1.0  0.05820  0.58000  0.65900  1.0000
  S   S1        1.0  0.86300  0.56200  0.13400  1.0000
  S   S2        1.0  0.36300  0.93800  0.13400  1.0000
  S   S3        1.0  0.91900  0.19700  0.27300  1.0000
  S   S4        1.0  0.41900  0.30300  0.27300  1.0000
  S   S5        1.0  0.68700  0.99900  0.49900  1.0000
  S   S6        1.0  0.18700  0.50100  0.49900  1.0000
  S   S7        1.0  0.81300  0.49900  0.50100  1.0000
  S   S8        1.0  0.31300  0.00127  0.50100  1.0000
  S   S9        1.0  0.58100  0.69700  0.72700  1.0000
  S   S10       1.0  0.08120  0.80300  0.72700  1.0000
  S   S11       1.0  0.63700  0.06210  0.86600  1.0000
  S   S12       1.0  0.13700  0.43800  0.86600  1.0000
