data_image0
_chemical_formula_structural       C4H12Hg4N12
_chemical_formula_sum              "C4 H12 Hg4 N12"
_cell_length_a       9.08451
_cell_length_b       6.82424
_cell_length_c       6.76594
_cell_angle_alpha    90
_cell_angle_beta     107.835
_cell_angle_gamma    90

_space_group_name_H-M_alt    "P 1"
_space_group_IT_number       1

loop_
  _space_group_symop_operation_xyz
  'x, y, z'

loop_
  _atom_site_type_symbol
  _atom_site_label
  _atom_site_symmetry_multiplicity
  _atom_site_fract_x
  _atom_site_fract_y
  _atom_site_fract_z
  _atom_site_occupancy
  C   C1        1.0  0.88100  0.02680  0.18700  1.0000
  C   C2        1.0  0.11900  0.52700  0.31300  1.0000
  C   C3        1.0  0.88100  0.47300  0.68700  1.0000
  C   C4        1.0  0.11900  0.97300  0.81300  1.0000
  H   H1        1.0  0.88800  0.08780  0.04020  1.0000
  H   H2        1.0  0.87100  0.86700  0.17500  1.0000
  H   H3        1.0  0.01830  0.57000  0.18400  1.0000
  H   H4        1.0  0.98200  0.06970  0.31600  1.0000
  H   H5        1.0  0.12900  0.36700  0.32500  1.0000
  H   H6        1.0  0.11200  0.58800  0.46000  1.0000
  H   H7        1.0  0.88800  0.41200  0.54000  1.0000
  H   H8        1.0  0.87100  0.63300  0.67500  1.0000
  H   H9        1.0  0.01830  0.93000  0.68400  1.0000
  H   H10       1.0  0.98200  0.43000  0.81600  1.0000
  H   H11       1.0  0.12900  0.13300  0.82500  1.0000
  H   H12       1.0  0.11200  0.91200  0.96000  1.0000
  Hg  Hg1       1.0  0.68300  0.13500  0.24200  1.0000
  Hg  Hg2       1.0  0.31700  0.63500  0.25800  1.0000
  Hg  Hg3       1.0  0.68300  0.36500  0.74200  1.0000
  Hg  Hg4       1.0  0.31700  0.86500  0.75800  1.0000
  N   N1        1.0  0.71700  0.56100  0.15700  1.0000
  N   N2        1.0  0.61500  0.65500  0.17500  1.0000
  N   N3        1.0  0.51400  0.76400  0.19000  1.0000
  N   N4        1.0  0.48600  0.26400  0.31000  1.0000
  N   N5        1.0  0.38500  0.15500  0.32500  1.0000
  N   N6        1.0  0.28300  0.06150  0.34300  1.0000
  N   N7        1.0  0.71700  0.93900  0.65700  1.0000
  N   N8        1.0  0.61500  0.84500  0.67500  1.0000
  N   N9        1.0  0.51400  0.73600  0.69000  1.0000
  N   N10       1.0  0.48600  0.23600  0.81000  1.0000
  N   N11       1.0  0.38500  0.34500  0.82500  1.0000
  N   N12       1.0  0.28300  0.43900  0.84300  1.0000
