data_image0
_chemical_formula_structural       Be4La4O10
_chemical_formula_sum              "Be4 La4 O10"
_cell_length_a       5.24237
_cell_length_b       5.24237
_cell_length_c       7.40087
_cell_angle_alpha    91.1041
_cell_angle_beta     91.1041
_cell_angle_gamma    88.5756

_space_group_name_H-M_alt    "P 1"
_space_group_IT_number       1

loop_
  _space_group_symop_operation_xyz
  'x, y, z'

loop_
  _atom_site_type_symbol
  _atom_site_label
  _atom_site_symmetry_multiplicity
  _atom_site_fract_x
  _atom_site_fract_y
  _atom_site_fract_z
  _atom_site_occupancy
  Be  Be1       1.0  0.68800  0.25100  0.03000  1.0000
  Be  Be2       1.0  0.74900  0.31200  0.47000  1.0000
  Be  Be3       1.0  0.25100  0.68800  0.53000  1.0000
  Be  Be4       1.0  0.31200  0.74900  0.97000  1.0000
  La  La1       1.0  0.20200  0.27300  0.19600  1.0000
  La  La2       1.0  0.72700  0.79800  0.30400  1.0000
  La  La3       1.0  0.27300  0.20200  0.69600  1.0000
  La  La4       1.0  0.79800  0.72700  0.80400  1.0000
  O   O1        1.0  0.50000  0.50000  0.00000  1.0000
  O   O2        1.0  0.50000  0.00000  0.00000  1.0000
  O   O3        1.0  0.05640  0.74500  0.08480  1.0000
  O   O4        1.0  0.75100  0.24900  0.25000  1.0000
  O   O5        1.0  0.25500  0.94400  0.41500  1.0000
  O   O6        1.0  0.50000  0.50000  0.50000  1.0000
  O   O7        1.0  0.00000  0.50000  0.50000  1.0000
  O   O8        1.0  0.74500  0.05640  0.58500  1.0000
  O   O9        1.0  0.24900  0.75100  0.75000  1.0000
  O   O10       1.0  0.94400  0.25500  0.91500  1.0000
