data_image0
_chemical_formula_structural       O5Si2U2
_chemical_formula_sum              "O5 Si2 U2"
_cell_length_a       7.97283
_cell_length_b       4.2241
_cell_length_c       4.2241
_cell_angle_alpha    90
_cell_angle_beta     90
_cell_angle_gamma    90

_space_group_name_H-M_alt    "P 1"
_space_group_IT_number       1

loop_
  _space_group_symop_operation_xyz
  'x, y, z'

loop_
  _atom_site_type_symbol
  _atom_site_label
  _atom_site_symmetry_multiplicity
  _atom_site_fract_x
  _atom_site_fract_y
  _atom_site_fract_z
  _atom_site_occupancy
  O   O1        1.0  0.29900  0.50000  0.00000  1.0000
  O   O2        1.0  0.70100  0.50000  0.00000  1.0000
  O   O3        1.0  0.29900  0.00000  0.50000  1.0000
  O   O4        1.0  0.70100  0.00000  0.50000  1.0000
  O   O5        1.0  0.50000  0.50000  0.50000  1.0000
  Si  Si1       1.0  0.00000  0.00000  0.00000  1.0000
  Si  Si2       1.0  0.50000  0.00000  0.00000  1.0000
  U   U1        1.0  0.23500  0.50000  0.50000  1.0000
  U   U2        1.0  0.76500  0.50000  0.50000  1.0000
