data_image0
_chemical_formula_structural       C4H12O12S4Zn2
_chemical_formula_sum              "C4 H12 O12 S4 Zn2"
_cell_length_a       6.64074
_cell_length_b       6.64074
_cell_length_c       8.81113
_cell_angle_alpha    105.476
_cell_angle_beta     105.476
_cell_angle_gamma    105.062

_space_group_name_H-M_alt    "P 1"
_space_group_IT_number       1

loop_
  _space_group_symop_operation_xyz
  'x, y, z'

loop_
  _atom_site_type_symbol
  _atom_site_label
  _atom_site_symmetry_multiplicity
  _atom_site_fract_x
  _atom_site_fract_y
  _atom_site_fract_z
  _atom_site_occupancy
  C   C1        1.0  0.94100  0.29700  0.27000  1.0000
  C   C2        1.0  0.65500  0.61800  0.34300  1.0000
  C   C3        1.0  0.29700  0.94100  0.77000  1.0000
  C   C4        1.0  0.61800  0.65500  0.84300  1.0000
  H   H1        1.0  0.90400  0.23500  0.13400  1.0000
  H   H2        1.0  0.62700  0.51100  0.21500  1.0000
  H   H3        1.0  0.65400  0.04950  0.23300  1.0000
  H   H4        1.0  0.99300  0.48000  0.32200  1.0000
  H   H5        1.0  0.93300  0.83600  0.34300  1.0000
  H   H6        1.0  0.63000  0.51500  0.42000  1.0000
  H   H7        1.0  0.23500  0.90400  0.63400  1.0000
  H   H8        1.0  0.51100  0.62700  0.71500  1.0000
  H   H9        1.0  0.04950  0.65400  0.73300  1.0000
  H   H10       1.0  0.48000  0.99300  0.82200  1.0000
  H   H11       1.0  0.83600  0.93300  0.84300  1.0000
  H   H12       1.0  0.51500  0.63000  0.92000  1.0000
  O   O1        1.0  0.26800  0.16900  0.04810  1.0000
  O   O2        1.0  0.44000  0.81500  0.17300  1.0000
  O   O3        1.0  0.09870  0.97500  0.27800  1.0000
  O   O4        1.0  0.76300  0.20100  0.31600  1.0000
  O   O5        1.0  0.86600  0.78800  0.42400  1.0000
  O   O6        1.0  0.53500  0.93800  0.48900  1.0000
  O   O7        1.0  0.16900  0.26800  0.54800  1.0000
  O   O8        1.0  0.81500  0.44000  0.67300  1.0000
  O   O9        1.0  0.97500  0.09870  0.77800  1.0000
  O   O10       1.0  0.20100  0.76300  0.81600  1.0000
  O   O11       1.0  0.78800  0.86600  0.92400  1.0000
  O   O12       1.0  0.93800  0.53500  0.98900  1.0000
  S   S1        1.0  0.43000  0.73500  0.32400  1.0000
  S   S2        1.0  0.18700  0.23300  0.37400  1.0000
  S   S3        1.0  0.73500  0.43000  0.82400  1.0000
  S   S4        1.0  0.23300  0.18700  0.87400  1.0000
  Zn  Zn1       1.0  0.14600  0.85400  0.05510  1.0000
  Zn  Zn2       1.0  0.85400  0.14600  0.55500  1.0000
