data_image0
_chemical_formula_structural       Br2C6H18N4S4
_chemical_formula_sum              "Br2 C6 H18 N4 S4"
_cell_length_a       5.52093
_cell_length_b       8.16437
_cell_length_c       9.0894
_cell_angle_alpha    69.5018
_cell_angle_beta     81.6399
_cell_angle_gamma    78.4101

_space_group_name_H-M_alt    "P 1"
_space_group_IT_number       1

loop_
  _space_group_symop_operation_xyz
  'x, y, z'

loop_
  _atom_site_type_symbol
  _atom_site_label
  _atom_site_symmetry_multiplicity
  _atom_site_fract_x
  _atom_site_fract_y
  _atom_site_fract_z
  _atom_site_occupancy
  Br  Br1       1.0  0.23200  0.84600  0.31200  1.0000
  Br  Br2       1.0  0.76800  0.15400  0.68800  1.0000
  C   C1        1.0  0.81500  0.78000  0.08050  1.0000
  C   C2        1.0  0.65900  0.13800  0.30800  1.0000
  C   C3        1.0  0.26600  0.36800  0.40300  1.0000
  C   C4        1.0  0.73400  0.63200  0.59700  1.0000
  C   C5        1.0  0.34100  0.86200  0.69200  1.0000
  C   C6        1.0  0.18500  0.22000  0.92000  1.0000
  H   H1        1.0  0.19700  0.09170  0.01550  1.0000
  H   H2        1.0  0.99600  0.69600  0.07430  1.0000
  H   H3        1.0  0.76800  0.79600  0.19600  1.0000
  H   H4        1.0  0.80700  0.12900  0.21600  1.0000
  H   H5        1.0  0.53800  0.03730  0.33200  1.0000
  H   H6        1.0  0.17500  0.50700  0.36900  1.0000
  H   H7        1.0  0.73700  0.13300  0.41500  1.0000
  H   H8        1.0  0.13300  0.27500  0.43300  1.0000
  H   H9        1.0  0.38600  0.33700  0.49900  1.0000
  H   H10       1.0  0.61400  0.66300  0.50100  1.0000
  H   H11       1.0  0.86700  0.72500  0.56700  1.0000
  H   H12       1.0  0.26300  0.86700  0.58500  1.0000
  H   H13       1.0  0.82500  0.49300  0.63100  1.0000
  H   H14       1.0  0.46200  0.96300  0.66800  1.0000
  H   H15       1.0  0.19300  0.87100  0.78400  1.0000
  H   H16       1.0  0.23200  0.20400  0.80400  1.0000
  H   H17       1.0  0.00410  0.30400  0.92600  1.0000
  H   H18       1.0  0.80300  0.90800  0.98500  1.0000
  N   N1        1.0  0.28100  0.35900  0.11800  1.0000
  N   N2        1.0  0.66600  0.47700  0.18900  1.0000
  N   N3        1.0  0.33400  0.52300  0.81100  1.0000
  N   N4        1.0  0.71900  0.64100  0.88200  1.0000
  S   S1        1.0  0.58700  0.67000  0.05200  1.0000
  S   S2        1.0  0.46800  0.34600  0.23900  1.0000
  S   S3        1.0  0.53200  0.65400  0.76100  1.0000
  S   S4        1.0  0.41300  0.33000  0.94800  1.0000
