data_image0
_chemical_formula_structural       C8H16I8Sn2
_chemical_formula_sum              "C8 H16 I8 Sn2"
_cell_length_a       9.55533
_cell_length_b       9.55533
_cell_length_c       7.44745
_cell_angle_alpha    90
_cell_angle_beta     90
_cell_angle_gamma    90

_space_group_name_H-M_alt    "P 1"
_space_group_IT_number       1

loop_
  _space_group_symop_operation_xyz
  'x, y, z'

loop_
  _atom_site_type_symbol
  _atom_site_label
  _atom_site_symmetry_multiplicity
  _atom_site_fract_x
  _atom_site_fract_y
  _atom_site_fract_z
  _atom_site_occupancy
  C   C1        1.0  0.39400  0.34800  0.16800  1.0000
  C   C2        1.0  0.60600  0.65200  0.16800  1.0000
  C   C3        1.0  0.89400  0.15200  0.33200  1.0000
  C   C4        1.0  0.10600  0.84800  0.33200  1.0000
  C   C5        1.0  0.15200  0.10600  0.66800  1.0000
  C   C6        1.0  0.84800  0.89400  0.66800  1.0000
  C   C7        1.0  0.65200  0.39400  0.83200  1.0000
  C   C8        1.0  0.34800  0.60600  0.83200  1.0000
  H   H1        1.0  0.34500  0.26500  0.08770  1.0000
  H   H2        1.0  0.65500  0.73500  0.08770  1.0000
  H   H3        1.0  0.96400  0.19700  0.23100  1.0000
  H   H4        1.0  0.03640  0.80300  0.23100  1.0000
  H   H5        1.0  0.46400  0.30300  0.26900  1.0000
  H   H6        1.0  0.53600  0.69700  0.26900  1.0000
  H   H7        1.0  0.84500  0.23500  0.41200  1.0000
  H   H8        1.0  0.15500  0.76500  0.41200  1.0000
  H   H9        1.0  0.23500  0.15500  0.58800  1.0000
  H   H10       1.0  0.76500  0.84500  0.58800  1.0000
  H   H11       1.0  0.69700  0.46400  0.73100  1.0000
  H   H12       1.0  0.30300  0.53600  0.73100  1.0000
  H   H13       1.0  0.19700  0.03640  0.76900  1.0000
  H   H14       1.0  0.80300  0.96400  0.76900  1.0000
  H   H15       1.0  0.73500  0.34500  0.91200  1.0000
  H   H16       1.0  0.26500  0.65500  0.91200  1.0000
  I   I1        1.0  0.72400  0.05720  0.18400  1.0000
  I   I2        1.0  0.27600  0.94300  0.18400  1.0000
  I   I3        1.0  0.22400  0.44300  0.31600  1.0000
  I   I4        1.0  0.77600  0.55700  0.31600  1.0000
  I   I5        1.0  0.55700  0.22400  0.68400  1.0000
  I   I6        1.0  0.44300  0.77600  0.68400  1.0000
  I   I7        1.0  0.05720  0.27600  0.81600  1.0000
  I   I8        1.0  0.94300  0.72400  0.81600  1.0000
  Sn  Sn1       1.0  0.50000  0.50000  0.00000  1.0000
  Sn  Sn2       1.0  0.00000  0.00000  0.50000  1.0000
