data_image0
_chemical_formula_structural       Br8C8H16Si2
_chemical_formula_sum              "Br8 C8 H16 Si2"
_cell_length_a       8.82604
_cell_length_b       8.82604
_cell_length_c       6.91076
_cell_angle_alpha    90
_cell_angle_beta     90
_cell_angle_gamma    90

_space_group_name_H-M_alt    "P 1"
_space_group_IT_number       1

loop_
  _space_group_symop_operation_xyz
  'x, y, z'

loop_
  _atom_site_type_symbol
  _atom_site_label
  _atom_site_symmetry_multiplicity
  _atom_site_fract_x
  _atom_site_fract_y
  _atom_site_fract_z
  _atom_site_occupancy
  Br  Br1       1.0  0.76100  0.44400  0.19300  1.0000
  Br  Br2       1.0  0.23900  0.55600  0.19300  1.0000
  Br  Br3       1.0  0.26100  0.05610  0.30700  1.0000
  Br  Br4       1.0  0.73900  0.94400  0.30700  1.0000
  Br  Br5       1.0  0.94400  0.26100  0.69300  1.0000
  Br  Br6       1.0  0.05610  0.73900  0.69300  1.0000
  Br  Br7       1.0  0.44400  0.23900  0.80700  1.0000
  Br  Br8       1.0  0.55600  0.76100  0.80700  1.0000
  C   C1        1.0  0.09520  0.14700  0.15600  1.0000
  C   C2        1.0  0.90500  0.85300  0.15600  1.0000
  C   C3        1.0  0.59500  0.35300  0.34400  1.0000
  C   C4        1.0  0.40500  0.64700  0.34400  1.0000
  C   C5        1.0  0.35300  0.40500  0.65600  1.0000
  C   C6        1.0  0.64700  0.59500  0.65600  1.0000
  C   C7        1.0  0.85300  0.09520  0.84400  1.0000
  C   C8        1.0  0.14700  0.90500  0.84400  1.0000
  H   H1        1.0  0.14800  0.23700  0.06950  1.0000
  H   H2        1.0  0.85200  0.76300  0.06950  1.0000
  H   H3        1.0  0.51800  0.30200  0.23700  1.0000
  H   H4        1.0  0.48200  0.69800  0.23700  1.0000
  H   H5        1.0  0.01840  0.19800  0.26300  1.0000
  H   H6        1.0  0.98200  0.80200  0.26300  1.0000
  H   H7        1.0  0.64800  0.26300  0.43000  1.0000
  H   H8        1.0  0.35200  0.73700  0.43000  1.0000
  H   H9        1.0  0.26300  0.35200  0.57000  1.0000
  H   H10       1.0  0.73700  0.64800  0.57000  1.0000
  H   H11       1.0  0.80200  0.01840  0.73700  1.0000
  H   H12       1.0  0.19800  0.98200  0.73700  1.0000
  H   H13       1.0  0.30200  0.48200  0.76300  1.0000
  H   H14       1.0  0.69800  0.51800  0.76300  1.0000
  H   H15       1.0  0.76300  0.14800  0.93000  1.0000
  H   H16       1.0  0.23700  0.85200  0.93000  1.0000
  Si  Si1       1.0  0.00000  0.00000  0.00000  1.0000
  Si  Si2       1.0  0.50000  0.50000  0.50000  1.0000
