data_image0
_chemical_formula_structural       LiO6Pu2
_chemical_formula_sum              "Li1 O6 Pu2"
_cell_length_a       6.08278
_cell_length_b       6.08278
_cell_length_c       4.27441
_cell_angle_alpha    96.2883
_cell_angle_beta     96.2883
_cell_angle_gamma    125.674

_space_group_name_H-M_alt    "P 1"
_space_group_IT_number       1

loop_
  _space_group_symop_operation_xyz
  'x, y, z'

loop_
  _atom_site_type_symbol
  _atom_site_label
  _atom_site_symmetry_multiplicity
  _atom_site_fract_x
  _atom_site_fract_y
  _atom_site_fract_z
  _atom_site_occupancy
  Li  Li1       1.0  0.43500  0.56500  0.50000  1.0000
  O   O1        1.0  0.92300  0.59700  0.23100  1.0000
  O   O2        1.0  0.18400  0.20300  0.23700  1.0000
  O   O3        1.0  0.54300  0.91800  0.26100  1.0000
  O   O4        1.0  0.08160  0.45700  0.73900  1.0000
  O   O5        1.0  0.79700  0.81600  0.76300  1.0000
  O   O6        1.0  0.40300  0.07660  0.76900  1.0000
  Pu  Pu1       1.0  0.83900  0.16100  0.00000  1.0000
  Pu  Pu2       1.0  0.15600  0.84400  0.00000  1.0000
