data_image0
_chemical_formula_structural       C8H12Hg2N8O4
_chemical_formula_sum              "C8 H12 Hg2 N8 O4"
_cell_length_a       5.02453
_cell_length_b       10.4269
_cell_length_c       7.06935
_cell_angle_alpha    90
_cell_angle_beta     116.827
_cell_angle_gamma    90

_space_group_name_H-M_alt    "P 1"
_space_group_IT_number       1

loop_
  _space_group_symop_operation_xyz
  'x, y, z'

loop_
  _atom_site_type_symbol
  _atom_site_label
  _atom_site_symmetry_multiplicity
  _atom_site_fract_x
  _atom_site_fract_y
  _atom_site_fract_z
  _atom_site_occupancy
  C   C1        1.0  0.91200  0.43100  0.16300  1.0000
  C   C2        1.0  0.27400  0.28500  0.16700  1.0000
  C   C3        1.0  0.72600  0.78500  0.33300  1.0000
  C   C4        1.0  0.08830  0.93100  0.33700  1.0000
  C   C5        1.0  0.91200  0.06920  0.66300  1.0000
  C   C6        1.0  0.27400  0.21500  0.66700  1.0000
  C   C7        1.0  0.72600  0.71500  0.83300  1.0000
  C   C8        1.0  0.08820  0.56900  0.83700  1.0000
  H   H1        1.0  0.08220  0.24300  0.02990  1.0000
  H   H2        1.0  0.75400  0.37000  0.03370  1.0000
  H   H3        1.0  0.62900  0.55700  0.15400  1.0000
  H   H4        1.0  0.37100  0.05730  0.34600  1.0000
  H   H5        1.0  0.24600  0.87000  0.46600  1.0000
  H   H6        1.0  0.91800  0.74300  0.47000  1.0000
  H   H7        1.0  0.08220  0.25700  0.53000  1.0000
  H   H8        1.0  0.75400  0.13000  0.53400  1.0000
  H   H9        1.0  0.62900  0.94300  0.65400  1.0000
  H   H10       1.0  0.37100  0.44300  0.84600  1.0000
  H   H11       1.0  0.24600  0.63000  0.96600  1.0000
  H   H12       1.0  0.91800  0.75700  0.97000  1.0000
  Hg  Hg1       1.0  0.50000  0.00000  0.00000  1.0000
  Hg  Hg2       1.0  0.50000  0.50000  0.50000  1.0000
  N   N1        1.0  0.85100  0.53400  0.23400  1.0000
  N   N2        1.0  0.79800  0.88800  0.24900  1.0000
  N   N3        1.0  0.20200  0.38800  0.25100  1.0000
  N   N4        1.0  0.14900  0.03400  0.26600  1.0000
  N   N5        1.0  0.85100  0.96600  0.73400  1.0000
  N   N6        1.0  0.79800  0.61200  0.74900  1.0000
  N   N7        1.0  0.20200  0.11200  0.75100  1.0000
  N   N8        1.0  0.14900  0.46600  0.76600  1.0000
  O   O1        1.0  0.53100  0.24200  0.23500  1.0000
  O   O2        1.0  0.46900  0.74200  0.26500  1.0000
  O   O3        1.0  0.53100  0.25800  0.73500  1.0000
  O   O4        1.0  0.46900  0.75800  0.76500  1.0000
