data_image0
_chemical_formula_structural       C4H10K2N6O6P2S4
_chemical_formula_sum              "C4 H10 K2 N6 O6 P2 S4"
_cell_length_a       6.46928
_cell_length_b       6.79094
_cell_length_c       10.2495
_cell_angle_alpha    90.2979
_cell_angle_beta     103.429
_cell_angle_gamma    98.4735

_space_group_name_H-M_alt    "P 1"
_space_group_IT_number       1

loop_
  _space_group_symop_operation_xyz
  'x, y, z'

loop_
  _atom_site_type_symbol
  _atom_site_label
  _atom_site_symmetry_multiplicity
  _atom_site_fract_x
  _atom_site_fract_y
  _atom_site_fract_z
  _atom_site_occupancy
  C   C1        1.0  0.19600  0.29500  0.03110  1.0000
  C   C2        1.0  0.29400  0.97800  0.12600  1.0000
  C   C3        1.0  0.70600  0.02170  0.87400  1.0000
  C   C4        1.0  0.80400  0.70500  0.96900  1.0000
  H   H1        1.0  0.57100  0.85400  0.01080  1.0000
  H   H2        1.0  0.96000  0.41500  0.09410  1.0000
  H   H3        1.0  0.14800  0.85800  0.27300  1.0000
  H   H4        1.0  0.16700  0.58200  0.39900  1.0000
  H   H5        1.0  0.11400  0.75900  0.48200  1.0000
  H   H6        1.0  0.88600  0.24100  0.51800  1.0000
  H   H7        1.0  0.83300  0.41800  0.60100  1.0000
  H   H8        1.0  0.85200  0.14200  0.72700  1.0000
  H   H9        1.0  0.04000  0.58500  0.90600  1.0000
  H   H10       1.0  0.42900  0.14600  0.98900  1.0000
  K   K1        1.0  0.66000  0.63400  0.28700  1.0000
  K   K2        1.0  0.34000  0.36600  0.71300  1.0000
  N   N1        1.0  0.32000  0.14400  0.05040  1.0000
  N   N2        1.0  0.06460  0.30800  0.11600  1.0000
  N   N3        1.0  0.15900  0.97800  0.20900  1.0000
  N   N4        1.0  0.84100  0.02150  0.79100  1.0000
  N   N5        1.0  0.93500  0.69200  0.88400  1.0000
  N   N6        1.0  0.68000  0.85600  0.95000  1.0000
  O   O1        1.0  0.79400  0.59000  0.06280  1.0000
  O   O2        1.0  0.38900  0.83400  0.11400  1.0000
  O   O3        1.0  0.08800  0.69900  0.38900  1.0000
  O   O4        1.0  0.91200  0.30100  0.61100  1.0000
  O   O5        1.0  0.61100  0.16600  0.88600  1.0000
  O   O6        1.0  0.20600  0.41000  0.93700  1.0000
  P   P1        1.0  0.08710  0.19100  0.26400  1.0000
  P   P2        1.0  0.91300  0.80900  0.73600  1.0000
  S   S1        1.0  0.80400  0.14100  0.30800  1.0000
  S   S2        1.0  0.33500  0.32800  0.40300  1.0000
  S   S3        1.0  0.66500  0.67200  0.59700  1.0000
  S   S4        1.0  0.19600  0.85900  0.69200  1.0000
