data_image0
_chemical_formula_structural       HoMn6Sn6
_chemical_formula_sum              "Ho1 Mn6 Sn6"
_cell_length_a       5.43856
_cell_length_b       5.43856
_cell_length_c       8.96468
_cell_angle_alpha    90
_cell_angle_beta     90
_cell_angle_gamma    119.998

_space_group_name_H-M_alt    "P 1"
_space_group_IT_number       1

loop_
  _space_group_symop_operation_xyz
  'x, y, z'

loop_
  _atom_site_type_symbol
  _atom_site_label
  _atom_site_symmetry_multiplicity
  _atom_site_fract_x
  _atom_site_fract_y
  _atom_site_fract_z
  _atom_site_occupancy
  Ho  Ho1       1.0  0.00003  0.00003  0.00000  1.0000
  Mn  Mn1       1.0  0.50000  0.50000  0.24900  1.0000
  Mn  Mn2       1.0  0.50000  0.00001  0.24900  1.0000
  Mn  Mn3       1.0  0.00001  0.50000  0.24900  1.0000
  Mn  Mn4       1.0  0.50000  0.00001  0.75100  1.0000
  Mn  Mn5       1.0  0.00001  0.50000  0.75100  1.0000
  Mn  Mn6       1.0  0.50000  0.50000  0.75100  1.0000
  Sn  Sn1       1.0  0.00001  0.00001  0.66600  1.0000
  Sn  Sn2       1.0  0.66700  0.33300  0.00000  1.0000
  Sn  Sn3       1.0  0.33300  0.66700  0.00000  1.0000
  Sn  Sn4       1.0  0.00001  0.00001  0.33400  1.0000
  Sn  Sn5       1.0  0.66700  0.33300  0.50000  1.0000
  Sn  Sn6       1.0  0.33300  0.66700  0.50000  1.0000
