data_image0
_chemical_formula_structural       C4H12N4O12Zn4
_chemical_formula_sum              "C4 H12 N4 O12 Zn4"
_cell_length_a       8.89181
_cell_length_b       5.05384
_cell_length_c       7.75651
_cell_angle_alpha    90
_cell_angle_beta     90
_cell_angle_gamma    90

_space_group_name_H-M_alt    "P 1"
_space_group_IT_number       1

loop_
  _space_group_symop_operation_xyz
  'x, y, z'

loop_
  _atom_site_type_symbol
  _atom_site_label
  _atom_site_symmetry_multiplicity
  _atom_site_fract_x
  _atom_site_fract_y
  _atom_site_fract_z
  _atom_site_occupancy
  C   C1        1.0  0.87400  0.00097  0.12800  1.0000
  C   C2        1.0  0.37400  0.00097  0.37200  1.0000
  C   C3        1.0  0.62600  0.50100  0.62800  1.0000
  C   C4        1.0  0.12600  0.50100  0.87200  1.0000
  H   H1        1.0  0.63700  0.61200  0.07510  1.0000
  H   H2        1.0  0.46800  0.46700  0.08730  1.0000
  H   H3        1.0  0.52600  0.67900  0.23900  1.0000
  H   H4        1.0  0.02610  0.67900  0.26100  1.0000
  H   H5        1.0  0.96800  0.46700  0.41300  1.0000
  H   H6        1.0  0.13700  0.61200  0.42500  1.0000
  H   H7        1.0  0.86300  0.11200  0.57500  1.0000
  H   H8        1.0  0.03190  0.96700  0.58700  1.0000
  H   H9        1.0  0.97400  0.17900  0.73900  1.0000
  H   H10       1.0  0.47400  0.17900  0.76100  1.0000
  H   H11       1.0  0.53200  0.96700  0.91300  1.0000
  H   H12       1.0  0.36300  0.11200  0.92500  1.0000
  N   N1        1.0  0.55900  0.52800  0.15700  1.0000
  N   N2        1.0  0.05950  0.52800  0.34300  1.0000
  N   N3        1.0  0.94100  0.02820  0.65700  1.0000
  N   N4        1.0  0.44100  0.02820  0.84300  1.0000
  O   O1        1.0  0.77100  0.92900  0.02100  1.0000
  O   O2        1.0  0.01570  0.96000  0.09100  1.0000
  O   O3        1.0  0.34100  0.10900  0.22700  1.0000
  O   O4        1.0  0.84100  0.10900  0.27300  1.0000
  O   O5        1.0  0.51600  0.96000  0.40900  1.0000
  O   O6        1.0  0.27100  0.92900  0.47900  1.0000
  O   O7        1.0  0.72900  0.42900  0.52100  1.0000
  O   O8        1.0  0.48400  0.46000  0.59100  1.0000
  O   O9        1.0  0.15900  0.60900  0.72700  1.0000
  O   O10       1.0  0.65900  0.60900  0.77300  1.0000
  O   O11       1.0  0.98400  0.46000  0.90900  1.0000
  O   O12       1.0  0.22900  0.42900  0.97900  1.0000
  Zn  Zn1       1.0  0.13900  0.24900  0.18800  1.0000
  Zn  Zn2       1.0  0.63900  0.24900  0.31200  1.0000
  Zn  Zn3       1.0  0.36100  0.74900  0.68800  1.0000
  Zn  Zn4       1.0  0.86100  0.74900  0.81200  1.0000
