data_image0
_chemical_formula_structural       Au2Br2C4H16N8S4
_chemical_formula_sum              "Au2 Br2 C4 H16 N8 S4"
_cell_length_a       6.6282
_cell_length_b       8.59295
_cell_length_c       9.13367
_cell_angle_alpha    61.9397
_cell_angle_beta     94.4351
_cell_angle_gamma    99.4619

_space_group_name_H-M_alt    "P 1"
_space_group_IT_number       1

loop_
  _space_group_symop_operation_xyz
  'x, y, z'

loop_
  _atom_site_type_symbol
  _atom_site_label
  _atom_site_symmetry_multiplicity
  _atom_site_fract_x
  _atom_site_fract_y
  _atom_site_fract_z
  _atom_site_occupancy
  Au  Au1       1.0  0.00000  0.00000  0.00000  1.0000
  Au  Au2       1.0  0.50000  0.00000  0.00000  1.0000
  Br  Br1       1.0  0.75000  0.37000  0.26000  1.0000
  Br  Br2       1.0  0.25000  0.63000  0.74000  1.0000
  C   C1        1.0  0.20800  0.10200  0.27900  1.0000
  C   C2        1.0  0.29200  0.61900  0.27900  1.0000
  C   C3        1.0  0.70800  0.38100  0.72100  1.0000
  C   C4        1.0  0.79200  0.89800  0.72100  1.0000
  H   H1        1.0  0.23200  0.27300  0.02990  1.0000
  H   H2        1.0  0.26800  0.69700  0.02990  1.0000
  H   H3        1.0  0.42300  0.32000  0.15400  1.0000
  H   H4        1.0  0.07650  0.52600  0.15400  1.0000
  H   H5        1.0  0.40300  0.16000  0.43900  1.0000
  H   H6        1.0  0.09710  0.40200  0.43900  1.0000
  H   H7        1.0  0.75700  0.04710  0.47000  1.0000
  H   H8        1.0  0.74300  0.48300  0.47000  1.0000
  H   H9        1.0  0.25700  0.51700  0.53000  1.0000
  H   H10       1.0  0.24300  0.95300  0.53000  1.0000
  H   H11       1.0  0.90300  0.59800  0.56100  1.0000
  H   H12       1.0  0.59700  0.84000  0.56100  1.0000
  H   H13       1.0  0.92300  0.47400  0.84600  1.0000
  H   H14       1.0  0.57700  0.68000  0.84600  1.0000
  H   H15       1.0  0.73200  0.30300  0.97000  1.0000
  H   H16       1.0  0.76800  0.72700  0.97000  1.0000
  N   N1        1.0  0.28800  0.24700  0.14500  1.0000
  N   N2        1.0  0.21200  0.60800  0.14500  1.0000
  N   N3        1.0  0.28500  0.07260  0.42800  1.0000
  N   N4        1.0  0.21500  0.50000  0.42800  1.0000
  N   N5        1.0  0.78500  0.50000  0.57200  1.0000
  N   N6        1.0  0.71500  0.92700  0.57200  1.0000
  N   N7        1.0  0.78800  0.39200  0.85500  1.0000
  N   N8        1.0  0.71200  0.75300  0.85500  1.0000
  S   S1        1.0  0.49700  0.77500  0.27000  1.0000
  S   S2        1.0  0.00340  0.95500  0.27000  1.0000
  S   S3        1.0  0.99700  0.04540  0.73000  1.0000
  S   S4        1.0  0.50300  0.22500  0.73000  1.0000
