data_image0
_chemical_formula_structural       C2H16N8O8S2
_chemical_formula_sum              "C2 H16 N8 O8 S2"
_cell_length_a       5.86067
_cell_length_b       7.25159
_cell_length_c       7.54178
_cell_angle_alpha    107.437
_cell_angle_beta     102.26
_cell_angle_gamma    95.1548

_space_group_name_H-M_alt    "P 1"
_space_group_IT_number       1

loop_
  _space_group_symop_operation_xyz
  'x, y, z'

loop_
  _atom_site_type_symbol
  _atom_site_label
  _atom_site_symmetry_multiplicity
  _atom_site_fract_x
  _atom_site_fract_y
  _atom_site_fract_z
  _atom_site_occupancy
  C   C1        1.0  0.83500  0.08880  0.25200  1.0000
  C   C2        1.0  0.16500  0.91100  0.74800  1.0000
  H   H1        1.0  0.72200  0.30400  0.02980  1.0000
  H   H2        1.0  0.53300  0.41300  0.15700  1.0000
  H   H3        1.0  0.09140  0.25200  0.18100  1.0000
  H   H4        1.0  0.14700  0.02410  0.20500  1.0000
  H   H5        1.0  0.83600  0.47000  0.26200  1.0000
  H   H6        1.0  0.62600  0.90100  0.32900  1.0000
  H   H7        1.0  0.91200  0.85000  0.33800  1.0000
  H   H8        1.0  0.58000  0.23100  0.35200  1.0000
  H   H9        1.0  0.42000  0.76900  0.64800  1.0000
  H   H10       1.0  0.08750  0.15000  0.66200  1.0000
  H   H11       1.0  0.37400  0.09940  0.67100  1.0000
  H   H12       1.0  0.16400  0.53000  0.73800  1.0000
  H   H13       1.0  0.85300  0.97600  0.79500  1.0000
  H   H14       1.0  0.90900  0.74800  0.81900  1.0000
  H   H15       1.0  0.46700  0.58700  0.84300  1.0000
  H   H16       1.0  0.27800  0.69600  0.97000  1.0000
  N   N1        1.0  0.69500  0.35700  0.17000  1.0000
  N   N2        1.0  0.03560  0.12600  0.20700  1.0000
  N   N3        1.0  0.65500  0.19600  0.23400  1.0000
  N   N4        1.0  0.79100  0.93900  0.31400  1.0000
  N   N5        1.0  0.20900  0.06070  0.68600  1.0000
  N   N6        1.0  0.34500  0.80400  0.76600  1.0000
  N   N7        1.0  0.96400  0.87400  0.79300  1.0000
  N   N8        1.0  0.30500  0.64300  0.83000  1.0000
  O   O1        1.0  0.25700  0.45600  0.13900  1.0000
  O   O2        1.0  0.26600  0.80300  0.18800  1.0000
  O   O3        1.0  0.05820  0.64800  0.36700  1.0000
  O   O4        1.0  0.48900  0.69900  0.44000  1.0000
  O   O5        1.0  0.51100  0.30100  0.56000  1.0000
  O   O6        1.0  0.94200  0.35200  0.63300  1.0000
  O   O7        1.0  0.73400  0.19700  0.81200  1.0000
  O   O8        1.0  0.74300  0.54400  0.86100  1.0000
  S   S1        1.0  0.26800  0.65100  0.28500  1.0000
  S   S2        1.0  0.73200  0.34900  0.71500  1.0000
