data_image0
_chemical_formula_structural       C12H8O16
_chemical_formula_sum              "C12 H8 O16"
_cell_length_a       5.95454
_cell_length_b       5.95454
_cell_length_c       10.0367
_cell_angle_alpha    90
_cell_angle_beta     90
_cell_angle_gamma    90

_space_group_name_H-M_alt    "P 1"
_space_group_IT_number       1

loop_
  _space_group_symop_operation_xyz
  'x, y, z'

loop_
  _atom_site_type_symbol
  _atom_site_label
  _atom_site_symmetry_multiplicity
  _atom_site_fract_x
  _atom_site_fract_y
  _atom_site_fract_z
  _atom_site_occupancy
  C   C1        1.0  0.81400  0.41900  0.06900  1.0000
  C   C2        1.0  0.11800  0.62100  0.13200  1.0000
  C   C3        1.0  0.91900  0.31300  0.19200  1.0000
  C   C4        1.0  0.58100  0.81400  0.31900  1.0000
  C   C5        1.0  0.37900  0.11800  0.38200  1.0000
  C   C6        1.0  0.68700  0.91900  0.44200  1.0000
  C   C7        1.0  0.18600  0.58100  0.56900  1.0000
  C   C8        1.0  0.88200  0.37900  0.63200  1.0000
  C   C9        1.0  0.08080  0.68700  0.69200  1.0000
  C   C10       1.0  0.41900  0.18600  0.81900  1.0000
  C   C11       1.0  0.62100  0.88200  0.88200  1.0000
  C   C12       1.0  0.31300  0.08080  0.94200  1.0000
  H   H1        1.0  0.28100  0.60400  0.08280  1.0000
  H   H2        1.0  0.09550  0.78200  0.18200  1.0000
  H   H3        1.0  0.39600  0.28100  0.33300  1.0000
  H   H4        1.0  0.21800  0.09550  0.43200  1.0000
  H   H5        1.0  0.71900  0.39600  0.58300  1.0000
  H   H6        1.0  0.90400  0.21800  0.68200  1.0000
  H   H7        1.0  0.60400  0.71900  0.83300  1.0000
  H   H8        1.0  0.78200  0.90400  0.93200  1.0000
  O   O1        1.0  0.64600  0.36200  0.01050  1.0000
  O   O2        1.0  0.94300  0.59500  0.03540  1.0000
  O   O3        1.0  0.09490  0.44200  0.22600  1.0000
  O   O4        1.0  0.86300  0.14400  0.24900  1.0000
  O   O5        1.0  0.63800  0.64600  0.26100  1.0000
  O   O6        1.0  0.40500  0.94300  0.28500  1.0000
  O   O7        1.0  0.55800  0.09490  0.47600  1.0000
  O   O8        1.0  0.85600  0.86300  0.49900  1.0000
  O   O9        1.0  0.35400  0.63800  0.51100  1.0000
  O   O10       1.0  0.05690  0.40500  0.53500  1.0000
  O   O11       1.0  0.90500  0.55800  0.72600  1.0000
  O   O12       1.0  0.13700  0.85600  0.74900  1.0000
  O   O13       1.0  0.36200  0.35400  0.76100  1.0000
  O   O14       1.0  0.59500  0.05690  0.78500  1.0000
  O   O15       1.0  0.44200  0.90500  0.97600  1.0000
  O   O16       1.0  0.14400  0.13700  0.99900  1.0000
