data_image0
_chemical_formula_structural       B2Nd2Ni8
_chemical_formula_sum              "B2 Nd2 Ni8"
_cell_length_a       5.08329
_cell_length_b       5.08329
_cell_length_c       6.99491
_cell_angle_alpha    90
_cell_angle_beta     90
_cell_angle_gamma    120.03

_space_group_name_H-M_alt    "P 1"
_space_group_IT_number       1

loop_
  _space_group_symop_operation_xyz
  'x, y, z'

loop_
  _atom_site_type_symbol
  _atom_site_label
  _atom_site_symmetry_multiplicity
  _atom_site_fract_x
  _atom_site_fract_y
  _atom_site_fract_z
  _atom_site_occupancy
  B   B1        1.0  0.66700  0.33300  0.50000  1.0000
  B   B2        1.0  0.33300  0.66700  0.50000  1.0000
  Nd  Nd1       1.0  0.00002  0.00002  0.00000  1.0000
  Nd  Nd2       1.0  0.00001  0.00001  0.50000  1.0000
  Ni  Ni1       1.0  0.66700  0.33300  0.00000  1.0000
  Ni  Ni2       1.0  0.33300  0.66700  0.00000  1.0000
  Ni  Ni3       1.0  0.50000  0.00002  0.29400  1.0000
  Ni  Ni4       1.0  0.00002  0.50000  0.29400  1.0000
  Ni  Ni5       1.0  0.50000  0.50000  0.29400  1.0000
  Ni  Ni6       1.0  0.50000  0.50000  0.70600  1.0000
  Ni  Ni7       1.0  0.50000  0.00002  0.70600  1.0000
  Ni  Ni8       1.0  0.00002  0.50000  0.70600  1.0000
