data_image0
_chemical_formula_structural       Fe28Th8
_chemical_formula_sum              "Fe28 Th8"
_cell_length_a       5.11114
_cell_length_b       5.1111
_cell_length_c       24.6099
_cell_angle_alpha    90
_cell_angle_beta     90
_cell_angle_gamma    120

_space_group_name_H-M_alt    "P 1"
_space_group_IT_number       1

loop_
  _space_group_symop_operation_xyz
  'x, y, z'

loop_
  _atom_site_type_symbol
  _atom_site_label
  _atom_site_symmetry_multiplicity
  _atom_site_fract_x
  _atom_site_fract_y
  _atom_site_fract_z
  _atom_site_occupancy
  Fe  Fe1       1.0  0.00000  0.00000  0.00000  1.0000
  Fe  Fe2       1.0  0.33200  0.16600  0.08600  1.0000
  Fe  Fe3       1.0  0.83400  0.16600  0.08600  1.0000
  Fe  Fe4       1.0  0.83400  0.66800  0.08600  1.0000
  Fe  Fe5       1.0  0.66700  0.33300  0.16700  1.0000
  Fe  Fe6       1.0  0.00000  0.00000  0.16800  1.0000
  Fe  Fe7       1.0  0.33300  0.16700  0.25000  1.0000
  Fe  Fe8       1.0  0.83300  0.16700  0.25000  1.0000
  Fe  Fe9       1.0  0.83300  0.66700  0.25000  1.0000
  Fe  Fe10      1.0  0.00000  0.00000  0.33200  1.0000
  Fe  Fe11      1.0  0.66700  0.33300  0.33300  1.0000
  Fe  Fe12      1.0  0.33200  0.16600  0.41400  1.0000
  Fe  Fe13      1.0  0.83400  0.16600  0.41400  1.0000
  Fe  Fe14      1.0  0.83400  0.66800  0.41400  1.0000
  Fe  Fe15      1.0  0.00000  0.00000  0.50000  1.0000
  Fe  Fe16      1.0  0.16600  0.33200  0.58600  1.0000
  Fe  Fe17      1.0  0.16600  0.83400  0.58600  1.0000
  Fe  Fe18      1.0  0.66800  0.83400  0.58600  1.0000
  Fe  Fe19      1.0  0.33300  0.66700  0.66700  1.0000
  Fe  Fe20      1.0  0.00000  0.00000  0.66800  1.0000
  Fe  Fe21      1.0  0.16700  0.33300  0.75000  1.0000
  Fe  Fe22      1.0  0.16700  0.83300  0.75000  1.0000
  Fe  Fe23      1.0  0.66700  0.83300  0.75000  1.0000
  Fe  Fe24      1.0  0.00000  0.00000  0.83200  1.0000
  Fe  Fe25      1.0  0.33300  0.66700  0.83300  1.0000
  Fe  Fe26      1.0  0.16600  0.33200  0.91400  1.0000
  Fe  Fe27      1.0  0.16600  0.83400  0.91400  1.0000
  Fe  Fe28      1.0  0.66800  0.83400  0.91400  1.0000
  Th  Th1       1.0  0.33300  0.66700  0.02770  1.0000
  Th  Th2       1.0  0.33300  0.66700  0.17300  1.0000
  Th  Th3       1.0  0.33300  0.66700  0.32700  1.0000
  Th  Th4       1.0  0.33300  0.66700  0.47200  1.0000
  Th  Th5       1.0  0.66700  0.33300  0.52800  1.0000
  Th  Th6       1.0  0.66700  0.33300  0.67300  1.0000
  Th  Th7       1.0  0.66700  0.33300  0.82700  1.0000
  Th  Th8       1.0  0.66700  0.33300  0.97200  1.0000
