data_image0
_chemical_formula_structural       C6H14N6O10
_chemical_formula_sum              "C6 H14 N6 O10"
_cell_length_a       6.55985
_cell_length_b       6.68874
_cell_length_c       8.33418
_cell_angle_alpha    110.902
_cell_angle_beta     90
_cell_angle_gamma    119.365

_space_group_name_H-M_alt    "P 1"
_space_group_IT_number       1

loop_
  _space_group_symop_operation_xyz
  'x, y, z'

loop_
  _atom_site_type_symbol
  _atom_site_label
  _atom_site_symmetry_multiplicity
  _atom_site_fract_x
  _atom_site_fract_y
  _atom_site_fract_z
  _atom_site_occupancy
  C   C1        1.0  0.10800  0.84800  0.09800  1.0000
  C   C2        1.0  0.50000  0.00000  0.25000  1.0000
  C   C3        1.0  0.26000  0.15200  0.40200  1.0000
  C   C4        1.0  0.74000  0.84800  0.59800  1.0000
  C   C5        1.0  0.50000  0.00000  0.75000  1.0000
  C   C6        1.0  0.89200  0.15200  0.90200  1.0000
  H   H1        1.0  0.65000  0.26500  0.00406  1.0000
  H   H2        1.0  0.37800  0.37100  0.08630  1.0000
  H   H3        1.0  0.06790  0.47000  0.24500  1.0000
  H   H4        1.0  0.92900  0.00000  0.25000  1.0000
  H   H5        1.0  0.59800  0.53000  0.25500  1.0000
  H   H6        1.0  0.00677  0.62900  0.41400  1.0000
  H   H7        1.0  0.38500  0.73500  0.49600  1.0000
  H   H8        1.0  0.61500  0.26500  0.50400  1.0000
  H   H9        1.0  0.99300  0.37100  0.58600  1.0000
  H   H10       1.0  0.40200  0.47000  0.74500  1.0000
  H   H11       1.0  0.07080  0.00000  0.75000  1.0000
  H   H12       1.0  0.93200  0.53000  0.75500  1.0000
  H   H13       1.0  0.62200  0.62900  0.91400  1.0000
  H   H14       1.0  0.35000  0.73500  0.99600  1.0000
  N   N1        1.0  0.31700  0.85200  0.10400  1.0000
  N   N2        1.0  0.08780  0.00000  0.25000  1.0000
  N   N3        1.0  0.46600  0.14800  0.39600  1.0000
  N   N4        1.0  0.53400  0.85200  0.60400  1.0000
  N   N5        1.0  0.91200  0.00000  0.75000  1.0000
  N   N6        1.0  0.68300  0.14800  0.89600  1.0000
  O   O1        1.0  0.05690  0.28600  0.03580  1.0000
  O   O2        1.0  0.52700  0.39300  0.13600  1.0000
  O   O3        1.0  0.68800  0.00000  0.25000  1.0000
  O   O4        1.0  0.13400  0.60700  0.36400  1.0000
  O   O5        1.0  0.77100  0.71400  0.46400  1.0000
  O   O6        1.0  0.22900  0.28600  0.53600  1.0000
  O   O7        1.0  0.86600  0.39300  0.63600  1.0000
  O   O8        1.0  0.31200  0.00000  0.75000  1.0000
  O   O9        1.0  0.47300  0.60700  0.86400  1.0000
  O   O10       1.0  0.94300  0.71400  0.96400  1.0000
