data_image0
_chemical_formula_structural       Au2C8H24N2
_chemical_formula_sum              "Au2 C8 H24 N2"
_cell_length_a       7.54145
_cell_length_b       7.54145
_cell_length_c       5.40293
_cell_angle_alpha    90
_cell_angle_beta     90
_cell_angle_gamma    90

_space_group_name_H-M_alt    "P 1"
_space_group_IT_number       1

loop_
  _space_group_symop_operation_xyz
  'x, y, z'

loop_
  _atom_site_type_symbol
  _atom_site_label
  _atom_site_symmetry_multiplicity
  _atom_site_fract_x
  _atom_site_fract_y
  _atom_site_fract_z
  _atom_site_occupancy
  Au  Au1       1.0  0.75000  0.75000  0.35300  1.0000
  Au  Au2       1.0  0.25000  0.25000  0.64700  1.0000
  C   C1        1.0  0.58800  0.25000  0.16100  1.0000
  C   C2        1.0  0.91200  0.25000  0.16100  1.0000
  C   C3        1.0  0.25000  0.58800  0.16100  1.0000
  C   C4        1.0  0.25000  0.91200  0.16100  1.0000
  C   C5        1.0  0.75000  0.08820  0.83900  1.0000
  C   C6        1.0  0.75000  0.41200  0.83900  1.0000
  C   C7        1.0  0.08820  0.75000  0.83900  1.0000
  C   C8        1.0  0.41200  0.75000  0.83900  1.0000
  H   H1        1.0  0.25000  0.02900  0.03870  1.0000
  H   H2        1.0  0.02900  0.25000  0.03870  1.0000
  H   H3        1.0  0.47100  0.25000  0.03870  1.0000
  H   H4        1.0  0.25000  0.47100  0.03870  1.0000
  H   H5        1.0  0.59100  0.13000  0.27600  1.0000
  H   H6        1.0  0.90900  0.13000  0.27600  1.0000
  H   H7        1.0  0.59100  0.37000  0.27600  1.0000
  H   H8        1.0  0.90900  0.37000  0.27600  1.0000
  H   H9        1.0  0.13000  0.59100  0.27600  1.0000
  H   H10       1.0  0.37000  0.59100  0.27600  1.0000
  H   H11       1.0  0.13000  0.90900  0.27600  1.0000
  H   H12       1.0  0.37000  0.90900  0.27600  1.0000
  H   H13       1.0  0.63000  0.09150  0.72400  1.0000
  H   H14       1.0  0.87000  0.09150  0.72400  1.0000
  H   H15       1.0  0.63000  0.40900  0.72400  1.0000
  H   H16       1.0  0.87000  0.40900  0.72400  1.0000
  H   H17       1.0  0.09150  0.63000  0.72400  1.0000
  H   H18       1.0  0.40900  0.63000  0.72400  1.0000
  H   H19       1.0  0.09150  0.87000  0.72400  1.0000
  H   H20       1.0  0.40900  0.87000  0.72400  1.0000
  H   H21       1.0  0.75000  0.52900  0.96100  1.0000
  H   H22       1.0  0.52900  0.75000  0.96100  1.0000
  H   H23       1.0  0.97100  0.75000  0.96100  1.0000
  H   H24       1.0  0.75000  0.97100  0.96100  1.0000
  N   N1        1.0  0.75000  0.25000  0.00000  1.0000
  N   N2        1.0  0.25000  0.75000  0.00000  1.0000
