data_image0
_chemical_formula_structural       C4H12Zn2
_chemical_formula_sum              "C4 H12 Zn2"
_cell_length_a       6.82168
_cell_length_b       6.82749
_cell_length_c       4.06458
_cell_angle_alpha    90
_cell_angle_beta     89.215
_cell_angle_gamma    90

_space_group_name_H-M_alt    "P 1"
_space_group_IT_number       1

loop_
  _space_group_symop_operation_xyz
  'x, y, z'

loop_
  _atom_site_type_symbol
  _atom_site_label
  _atom_site_symmetry_multiplicity
  _atom_site_fract_x
  _atom_site_fract_y
  _atom_site_fract_z
  _atom_site_occupancy
  C   C1        1.0  0.19900  0.20000  0.04460  1.0000
  C   C2        1.0  0.30100  0.70000  0.45500  1.0000
  C   C3        1.0  0.69900  0.30000  0.54500  1.0000
  C   C4        1.0  0.80100  0.80000  0.95500  1.0000
  H   H1        1.0  0.66200  0.84700  0.06820  1.0000
  H   H2        1.0  0.84700  0.66200  0.07180  1.0000
  H   H3        1.0  0.27600  0.72900  0.19300  1.0000
  H   H4        1.0  0.22400  0.22900  0.30700  1.0000
  H   H5        1.0  0.65300  0.16200  0.42800  1.0000
  H   H6        1.0  0.83800  0.34700  0.43200  1.0000
  H   H7        1.0  0.16200  0.65300  0.56800  1.0000
  H   H8        1.0  0.34700  0.83800  0.57200  1.0000
  H   H9        1.0  0.77600  0.77100  0.69300  1.0000
  H   H10       1.0  0.72400  0.27100  0.80700  1.0000
  H   H11       1.0  0.15300  0.33800  0.92800  1.0000
  H   H12       1.0  0.33800  0.15300  0.93200  1.0000
  Zn  Zn1       1.0  0.00000  0.00000  0.00000  1.0000
  Zn  Zn2       1.0  0.50000  0.50000  0.50000  1.0000
