data_image0
_chemical_formula_structural       C8H4K6N8O6Os2S2
_chemical_formula_sum              "C8 H4 K6 N8 O6 Os2 S2"
_cell_length_a       7.9147
_cell_length_b       8.76767
_cell_length_c       8.91311
_cell_angle_alpha    83.4858
_cell_angle_beta     63.741
_cell_angle_gamma    81.448

_space_group_name_H-M_alt    "P 1"
_space_group_IT_number       1

loop_
  _space_group_symop_operation_xyz
  'x, y, z'

loop_
  _atom_site_type_symbol
  _atom_site_label
  _atom_site_symmetry_multiplicity
  _atom_site_fract_x
  _atom_site_fract_y
  _atom_site_fract_z
  _atom_site_occupancy
  C   C1        1.0  0.41300  0.13300  0.26300  1.0000
  C   C2        1.0  0.70500  0.28100  0.26500  1.0000
  C   C3        1.0  0.42000  0.78400  0.38500  1.0000
  C   C4        1.0  0.68800  0.65300  0.49700  1.0000
  C   C5        1.0  0.31200  0.34700  0.50300  1.0000
  C   C6        1.0  0.58000  0.21600  0.61500  1.0000
  C   C7        1.0  0.29500  0.71900  0.73500  1.0000
  C   C8        1.0  0.58700  0.86700  0.73700  1.0000
  H   H1        1.0  0.25900  0.54100  0.23700  1.0000
  H   H2        1.0  0.04570  0.54300  0.27700  1.0000
  H   H3        1.0  0.95400  0.45700  0.72300  1.0000
  H   H4        1.0  0.74100  0.45900  0.76300  1.0000
  K   K1        1.0  0.76600  0.65000  0.06320  1.0000
  K   K2        1.0  0.22800  0.87600  0.07130  1.0000
  K   K3        1.0  0.99300  0.24800  0.42000  1.0000
  K   K4        1.0  0.00738  0.75200  0.58000  1.0000
  K   K5        1.0  0.77200  0.12400  0.92900  1.0000
  K   K6        1.0  0.23400  0.35000  0.93700  1.0000
  N   N1        1.0  0.35700  0.13700  0.16000  1.0000
  N   N2        1.0  0.83700  0.33800  0.16100  1.0000
  N   N3        1.0  0.38100  0.73800  0.28600  1.0000
  N   N4        1.0  0.81500  0.55400  0.45200  1.0000
  N   N5        1.0  0.18500  0.44600  0.54800  1.0000
  N   N6        1.0  0.61900  0.26200  0.71400  1.0000
  N   N7        1.0  0.16300  0.66200  0.83900  1.0000
  N   N8        1.0  0.64300  0.86300  0.84000  1.0000
  O   O1        1.0  0.81600  0.91000  0.16800  1.0000
  O   O2        1.0  0.17600  0.52900  0.18500  1.0000
  O   O3        1.0  0.92200  0.96600  0.37300  1.0000
  O   O4        1.0  0.07830  0.03420  0.62700  1.0000
  O   O5        1.0  0.82400  0.47100  0.81500  1.0000
  O   O6        1.0  0.18400  0.08960  0.83200  1.0000
  Os  Os1       1.0  0.50300  0.16000  0.44000  1.0000
  Os  Os2       1.0  0.49700  0.84000  0.56000  1.0000
  S   S1        1.0  0.75200  0.95700  0.34300  1.0000
  S   S2        1.0  0.24800  0.04270  0.65700  1.0000
