data_image0
_chemical_formula_structural       C2H12N12O10
_chemical_formula_sum              "C2 H12 N12 O10"
_cell_length_a       6.89659
_cell_length_b       3.25285
_cell_length_c       14.0257
_cell_angle_alpha    90
_cell_angle_beta     98.987
_cell_angle_gamma    90

_space_group_name_H-M_alt    "P 1"
_space_group_IT_number       1

loop_
  _space_group_symop_operation_xyz
  'x, y, z'

loop_
  _atom_site_type_symbol
  _atom_site_label
  _atom_site_symmetry_multiplicity
  _atom_site_fract_x
  _atom_site_fract_y
  _atom_site_fract_z
  _atom_site_occupancy
  C   C1        1.0  0.83600  0.39700  0.23200  1.0000
  C   C2        1.0  0.83600  0.60300  0.73200  1.0000
  H   H1        1.0  0.60100  0.45600  0.03960  1.0000
  H   H2        1.0  0.97700  0.24400  0.12000  1.0000
  H   H3        1.0  0.56900  0.68800  0.20500  1.0000
  H   H4        1.0  0.11300  0.16700  0.23500  1.0000
  H   H5        1.0  0.71600  0.50500  0.35400  1.0000
  H   H6        1.0  0.93600  0.22700  0.37200  1.0000
  H   H7        1.0  0.60100  0.54400  0.54000  1.0000
  H   H8        1.0  0.97700  0.75600  0.62000  1.0000
  H   H9        1.0  0.56900  0.31200  0.70500  1.0000
  H   H10       1.0  0.11300  0.83300  0.73500  1.0000
  H   H11       1.0  0.71600  0.49500  0.85400  1.0000
  H   H12       1.0  0.93600  0.77300  0.87200  1.0000
  N   N1        1.0  0.67000  0.52000  0.17500  1.0000
  N   N2        1.0  0.98900  0.27600  0.19300  1.0000
  N   N3        1.0  0.83500  0.39500  0.32700  1.0000
  N   N4        1.0  0.38500  0.86600  0.36400  1.0000
  N   N5        1.0  0.22000  0.98900  0.39600  1.0000
  N   N6        1.0  0.19700  0.89000  0.49000  1.0000
  N   N7        1.0  0.67000  0.48000  0.67500  1.0000
  N   N8        1.0  0.98900  0.72400  0.69300  1.0000
  N   N9        1.0  0.83500  0.60500  0.82700  1.0000
  N   N10       1.0  0.38500  0.13400  0.86400  1.0000
  N   N11       1.0  0.22000  0.01070  0.89600  1.0000
  N   N12       1.0  0.19700  0.11000  0.99000  1.0000
  O   O1        1.0  0.02930  0.00481  0.00448  1.0000
  O   O2        1.0  0.32000  0.27500  0.05110  1.0000
  O   O3        1.0  0.69100  0.63900  0.08180  1.0000
  O   O4        1.0  0.38500  0.95600  0.27700  1.0000
  O   O5        1.0  0.52500  0.68100  0.41300  1.0000
  O   O6        1.0  0.02930  0.99500  0.50400  1.0000
  O   O7        1.0  0.32000  0.72500  0.55100  1.0000
  O   O8        1.0  0.69100  0.36100  0.58200  1.0000
  O   O9        1.0  0.38500  0.04360  0.77700  1.0000
  O   O10       1.0  0.52500  0.31900  0.91300  1.0000
