data_image0
_chemical_formula_structural       C4H10Na6O16
_chemical_formula_sum              "C4 H10 Na6 O16"
_cell_length_a       3.40596
_cell_length_b       10.236
_cell_length_c       10.1918
_cell_angle_alpha    106.766
_cell_angle_beta     99.6188
_cell_angle_gamma    90

_space_group_name_H-M_alt    "P 1"
_space_group_IT_number       1

loop_
  _space_group_symop_operation_xyz
  'x, y, z'

loop_
  _atom_site_type_symbol
  _atom_site_label
  _atom_site_symmetry_multiplicity
  _atom_site_fract_x
  _atom_site_fract_y
  _atom_site_fract_z
  _atom_site_occupancy
  C   C1        1.0  0.82700  0.60700  0.18800  1.0000
  C   C2        1.0  0.36100  0.10700  0.18800  1.0000
  C   C3        1.0  0.63900  0.89300  0.81200  1.0000
  C   C4        1.0  0.17300  0.39300  0.81200  1.0000
  H   H1        1.0  0.00000  0.00000  0.00000  1.0000
  H   H2        1.0  0.00000  0.50000  0.00000  1.0000
  H   H3        1.0  0.77500  0.25900  0.38400  1.0000
  H   H4        1.0  0.60900  0.75900  0.38400  1.0000
  H   H5        1.0  0.47700  0.13500  0.47500  1.0000
  H   H6        1.0  0.99900  0.63500  0.47500  1.0000
  H   H7        1.0  0.00127  0.36500  0.52500  1.0000
  H   H8        1.0  0.52300  0.86500  0.52500  1.0000
  H   H9        1.0  0.39100  0.24100  0.61600  1.0000
  H   H10       1.0  0.22500  0.74100  0.61600  1.0000
  Na  Na1       1.0  0.75000  0.25000  0.00000  1.0000
  Na  Na2       1.0  0.25000  0.75000  0.00000  1.0000
  Na  Na3       1.0  0.99800  0.93000  0.30900  1.0000
  Na  Na4       1.0  0.31100  0.43000  0.30900  1.0000
  Na  Na5       1.0  0.68900  0.57000  0.69100  1.0000
  Na  Na6       1.0  0.00207  0.07010  0.69100  1.0000
  O   O1        1.0  0.93100  0.48900  0.10900  1.0000
  O   O2        1.0  0.17900  0.98900  0.10900  1.0000
  O   O3        1.0  0.81700  0.71300  0.14600  1.0000
  O   O4        1.0  0.32900  0.21300  0.14600  1.0000
  O   O5        1.0  0.56500  0.10700  0.30700  1.0000
  O   O6        1.0  0.74100  0.60700  0.30700  1.0000
  O   O7        1.0  0.55500  0.85700  0.42800  1.0000
  O   O8        1.0  0.87300  0.35700  0.42800  1.0000
  O   O9        1.0  0.12700  0.64300  0.57200  1.0000
  O   O10       1.0  0.44500  0.14300  0.57200  1.0000
  O   O11       1.0  0.25900  0.39300  0.69300  1.0000
  O   O12       1.0  0.43500  0.89300  0.69300  1.0000
  O   O13       1.0  0.67100  0.78700  0.85400  1.0000
  O   O14       1.0  0.18300  0.28700  0.85400  1.0000
  O   O15       1.0  0.82100  0.01090  0.89100  1.0000
  O   O16       1.0  0.06930  0.51100  0.89100  1.0000
