data_image0
_chemical_formula_structural       B26Gd8Ni2
_chemical_formula_sum              "B26 Gd8 Ni2"
_cell_length_a       7.36468
_cell_length_b       7.36468
_cell_length_c       6.98575
_cell_angle_alpha    90
_cell_angle_beta     90
_cell_angle_gamma    90

_space_group_name_H-M_alt    "P 1"
_space_group_IT_number       1

loop_
  _space_group_symop_operation_xyz
  'x, y, z'

loop_
  _atom_site_type_symbol
  _atom_site_label
  _atom_site_symmetry_multiplicity
  _atom_site_fract_x
  _atom_site_fract_y
  _atom_site_fract_z
  _atom_site_occupancy
  B   B1        1.0  0.50000  0.50000  0.00000  1.0000
  B   B2        1.0  0.54000  0.33100  0.24300  1.0000
  B   B3        1.0  0.33100  0.46000  0.24300  1.0000
  B   B4        1.0  0.66900  0.54000  0.24300  1.0000
  B   B5        1.0  0.46000  0.66900  0.24300  1.0000
  B   B6        1.0  0.59300  0.09340  0.25000  1.0000
  B   B7        1.0  0.09340  0.40700  0.25000  1.0000
  B   B8        1.0  0.90700  0.59300  0.25000  1.0000
  B   B9        1.0  0.40700  0.90700  0.25000  1.0000
  B   B10       1.0  0.83100  0.04020  0.25700  1.0000
  B   B11       1.0  0.04020  0.16900  0.25700  1.0000
  B   B12       1.0  0.96000  0.83100  0.25700  1.0000
  B   B13       1.0  0.16900  0.96000  0.25700  1.0000
  B   B14       1.0  0.00000  0.00000  0.50000  1.0000
  B   B15       1.0  0.83100  0.04020  0.74300  1.0000
  B   B16       1.0  0.04020  0.16900  0.74300  1.0000
  B   B17       1.0  0.96000  0.83100  0.74300  1.0000
  B   B18       1.0  0.16900  0.96000  0.74300  1.0000
  B   B19       1.0  0.59300  0.09340  0.75000  1.0000
  B   B20       1.0  0.09340  0.40700  0.75000  1.0000
  B   B21       1.0  0.90700  0.59300  0.75000  1.0000
  B   B22       1.0  0.40700  0.90700  0.75000  1.0000
  B   B23       1.0  0.54000  0.33100  0.75700  1.0000
  B   B24       1.0  0.33100  0.46000  0.75700  1.0000
  B   B25       1.0  0.66900  0.54000  0.75700  1.0000
  B   B26       1.0  0.46000  0.66900  0.75700  1.0000
  Gd  Gd1       1.0  0.32000  0.18400  0.00000  1.0000
  Gd  Gd2       1.0  0.81600  0.32000  0.00000  1.0000
  Gd  Gd3       1.0  0.18400  0.68000  0.00000  1.0000
  Gd  Gd4       1.0  0.68000  0.81600  0.00000  1.0000
  Gd  Gd5       1.0  0.31600  0.18000  0.50000  1.0000
  Gd  Gd6       1.0  0.82000  0.31600  0.50000  1.0000
  Gd  Gd7       1.0  0.18000  0.68400  0.50000  1.0000
  Gd  Gd8       1.0  0.68400  0.82000  0.50000  1.0000
  Ni  Ni1       1.0  0.00000  0.00000  0.00000  1.0000
  Ni  Ni2       1.0  0.50000  0.50000  0.50000  1.0000
