data_image0
_chemical_formula_structural       Co20P12Yb4
_chemical_formula_sum              "Co20 P12 Yb4"
_cell_length_a       11.6827
_cell_length_b       3.60516
_cell_length_c       10.2375
_cell_angle_alpha    90
_cell_angle_beta     90
_cell_angle_gamma    90

_space_group_name_H-M_alt    "P 1"
_space_group_IT_number       1

loop_
  _space_group_symop_operation_xyz
  'x, y, z'

loop_
  _atom_site_type_symbol
  _atom_site_label
  _atom_site_symmetry_multiplicity
  _atom_site_fract_x
  _atom_site_fract_y
  _atom_site_fract_z
  _atom_site_occupancy
  Co  Co1       1.0  0.43200  0.25000  0.03270  1.0000
  Co  Co2       1.0  0.98800  0.25000  0.09260  1.0000
  Co  Co3       1.0  0.30100  0.75000  0.11800  1.0000
  Co  Co4       1.0  0.50900  0.75000  0.21700  1.0000
  Co  Co5       1.0  0.17600  0.25000  0.22000  1.0000
  Co  Co6       1.0  0.67600  0.25000  0.28000  1.0000
  Co  Co7       1.0  0.00927  0.75000  0.28300  1.0000
  Co  Co8       1.0  0.80100  0.75000  0.38200  1.0000
  Co  Co9       1.0  0.48800  0.25000  0.40700  1.0000
  Co  Co10      1.0  0.93200  0.25000  0.46700  1.0000
  Co  Co11      1.0  0.06850  0.75000  0.53300  1.0000
  Co  Co12      1.0  0.51200  0.75000  0.59300  1.0000
  Co  Co13      1.0  0.19900  0.25000  0.61800  1.0000
  Co  Co14      1.0  0.99100  0.25000  0.71700  1.0000
  Co  Co15      1.0  0.32400  0.75000  0.72000  1.0000
  Co  Co16      1.0  0.82400  0.75000  0.78000  1.0000
  Co  Co17      1.0  0.49100  0.25000  0.78300  1.0000
  Co  Co18      1.0  0.69900  0.25000  0.88200  1.0000
  Co  Co19      1.0  0.01200  0.75000  0.90700  1.0000
  Co  Co20      1.0  0.56800  0.75000  0.96700  1.0000
  P   P1        1.0  0.61200  0.25000  0.08220  1.0000
  P   P2        1.0  0.10900  0.75000  0.10100  1.0000
  P   P3        1.0  0.37000  0.25000  0.23000  1.0000
  P   P4        1.0  0.87000  0.25000  0.27000  1.0000
  P   P5        1.0  0.60900  0.75000  0.39900  1.0000
  P   P6        1.0  0.11200  0.25000  0.41800  1.0000
  P   P7        1.0  0.88800  0.75000  0.58200  1.0000
  P   P8        1.0  0.39100  0.25000  0.60100  1.0000
  P   P9        1.0  0.13000  0.75000  0.73000  1.0000
  P   P10       1.0  0.63000  0.75000  0.77000  1.0000
  P   P11       1.0  0.89100  0.25000  0.89900  1.0000
  P   P12       1.0  0.38800  0.75000  0.91800  1.0000
  Yb  Yb1       1.0  0.79600  0.75000  0.08320  1.0000
  Yb  Yb2       1.0  0.29600  0.75000  0.41700  1.0000
  Yb  Yb3       1.0  0.70400  0.25000  0.58300  1.0000
  Yb  Yb4       1.0  0.20400  0.25000  0.91700  1.0000
