data_image0
_chemical_formula_structural       C4H16N12S4Zn2
_chemical_formula_sum              "C4 H16 N12 S4 Zn2"
_cell_length_a       6.97437
_cell_length_b       14.6196
_cell_length_c       4.11343
_cell_angle_alpha    90
_cell_angle_beta     107.96
_cell_angle_gamma    90

_space_group_name_H-M_alt    "P 1"
_space_group_IT_number       1

loop_
  _space_group_symop_operation_xyz
  'x, y, z'

loop_
  _atom_site_type_symbol
  _atom_site_label
  _atom_site_symmetry_multiplicity
  _atom_site_fract_x
  _atom_site_fract_y
  _atom_site_fract_z
  _atom_site_occupancy
  C   C1        1.0  0.62400  0.12800  0.04420  1.0000
  C   C2        1.0  0.12400  0.37200  0.04430  1.0000
  C   C3        1.0  0.37600  0.87200  0.95600  1.0000
  C   C4        1.0  0.87600  0.62800  0.95600  1.0000
  H   H1        1.0  0.37300  0.66100  0.17200  1.0000
  H   H2        1.0  0.87300  0.83900  0.17200  1.0000
  H   H3        1.0  0.22300  0.52800  0.38100  1.0000
  H   H4        1.0  0.72300  0.97200  0.38100  1.0000
  H   H5        1.0  0.75900  0.37200  0.41900  1.0000
  H   H6        1.0  0.25900  0.12800  0.41900  1.0000
  H   H7        1.0  0.57700  0.63000  0.48100  1.0000
  H   H8        1.0  0.07710  0.87000  0.48100  1.0000
  H   H9        1.0  0.42300  0.37000  0.51900  1.0000
  H   H10       1.0  0.92300  0.13000  0.51900  1.0000
  H   H11       1.0  0.24100  0.62800  0.58100  1.0000
  H   H12       1.0  0.74100  0.87200  0.58100  1.0000
  H   H13       1.0  0.77700  0.47200  0.61900  1.0000
  H   H14       1.0  0.27700  0.02840  0.61900  1.0000
  H   H15       1.0  0.12700  0.16100  0.82800  1.0000
  H   H16       1.0  0.62700  0.33900  0.82800  1.0000
  N   N1        1.0  0.27200  0.93200  0.00291  1.0000
  N   N2        1.0  0.77200  0.56800  0.00291  1.0000
  N   N3        1.0  0.44300  0.60600  0.32100  1.0000
  N   N4        1.0  0.94300  0.89400  0.32100  1.0000
  N   N5        1.0  0.67600  0.42500  0.47100  1.0000
  N   N6        1.0  0.17600  0.07470  0.47100  1.0000
  N   N7        1.0  0.32400  0.57500  0.52900  1.0000
  N   N8        1.0  0.82400  0.92500  0.52900  1.0000
  N   N9        1.0  0.55700  0.39400  0.67900  1.0000
  N   N10       1.0  0.05740  0.10600  0.67900  1.0000
  N   N11       1.0  0.22800  0.43200  0.99700  1.0000
  N   N12       1.0  0.72800  0.06850  0.99700  1.0000
  S   S1        1.0  0.98400  0.29100  0.11500  1.0000
  S   S2        1.0  0.48400  0.20900  0.11500  1.0000
  S   S3        1.0  0.01640  0.70900  0.88500  1.0000
  S   S4        1.0  0.51600  0.79100  0.88500  1.0000
  Zn  Zn1       1.0  0.00000  0.00000  0.00000  1.0000
  Zn  Zn2       1.0  0.50000  0.50000  0.00000  1.0000
