data_image0
_chemical_formula_structural       C2H18N18
_chemical_formula_sum              "C2 H18 N18"
_cell_length_a       4.45071
_cell_length_b       8.3482
_cell_length_c       8.98553
_cell_angle_alpha    108.618
_cell_angle_beta     94.4132
_cell_angle_gamma    104.104

_space_group_name_H-M_alt    "P 1"
_space_group_IT_number       1

loop_
  _space_group_symop_operation_xyz
  'x, y, z'

loop_
  _atom_site_type_symbol
  _atom_site_label
  _atom_site_symmetry_multiplicity
  _atom_site_fract_x
  _atom_site_fract_y
  _atom_site_fract_z
  _atom_site_occupancy
  C   C1        1.0  0.23500  0.05230  0.38300  1.0000
  C   C2        1.0  0.76500  0.94800  0.61700  1.0000
  H   H1        1.0  0.75500  0.84200  0.00202  1.0000
  H   H2        1.0  0.85600  0.38600  0.06510  1.0000
  H   H3        1.0  0.23600  0.81500  0.07610  1.0000
  H   H4        1.0  0.52700  0.15900  0.13300  1.0000
  H   H5        1.0  0.43200  0.63100  0.15500  1.0000
  H   H6        1.0  0.42600  0.43400  0.18800  1.0000
  H   H7        1.0  0.05280  0.47200  0.34100  1.0000
  H   H8        1.0  0.57500  0.63900  0.34600  1.0000
  H   H9        1.0  0.10700  0.68100  0.34900  1.0000
  H   H10       1.0  0.89300  0.31900  0.65100  1.0000
  H   H11       1.0  0.42500  0.36100  0.65400  1.0000
  H   H12       1.0  0.94700  0.52800  0.65900  1.0000
  H   H13       1.0  0.57400  0.56600  0.81200  1.0000
  H   H14       1.0  0.56800  0.36900  0.84500  1.0000
  H   H15       1.0  0.47300  0.84100  0.86700  1.0000
  H   H16       1.0  0.76400  0.18500  0.92400  1.0000
  H   H17       1.0  0.14400  0.61400  0.93500  1.0000
  H   H18       1.0  0.24500  0.15800  0.99800  1.0000
  N   N1        1.0  0.32400  0.71400  0.01680  1.0000
  N   N2        1.0  0.44800  0.23400  0.07560  1.0000
  N   N3        1.0  0.90400  0.10400  0.23400  1.0000
  N   N4        1.0  0.41000  0.56600  0.24200  1.0000
  N   N5        1.0  0.03380  0.97900  0.24300  1.0000
  N   N6        1.0  0.09620  0.55600  0.27600  1.0000
  N   N7        1.0  0.02090  0.24800  0.36400  1.0000
  N   N8        1.0  0.40600  0.95600  0.43400  1.0000
  N   N9        1.0  0.23000  0.21900  0.45900  1.0000
  N   N10       1.0  0.77000  0.78100  0.54100  1.0000
  N   N11       1.0  0.59400  0.04410  0.56600  1.0000
  N   N12       1.0  0.97900  0.75200  0.63600  1.0000
  N   N13       1.0  0.90400  0.44400  0.72400  1.0000
  N   N14       1.0  0.96600  0.02140  0.75700  1.0000
  N   N15       1.0  0.59000  0.43400  0.75800  1.0000
  N   N16       1.0  0.09560  0.89600  0.76600  1.0000
  N   N17       1.0  0.55200  0.76600  0.92400  1.0000
  N   N18       1.0  0.67600  0.28600  0.98300  1.0000
