data_image0
_chemical_formula_structural       C6H14O16Yb2
_chemical_formula_sum              "C6 H14 O16 Yb2"
_cell_length_a       6.15011
_cell_length_b       9.081
_cell_length_c       6.58329
_cell_angle_alpha    89.0103
_cell_angle_beta     83.2222
_cell_angle_gamma    72.8767

_space_group_name_H-M_alt    "P 1"
_space_group_IT_number       1

loop_
  _space_group_symop_operation_xyz
  'x, y, z'

loop_
  _atom_site_type_symbol
  _atom_site_label
  _atom_site_symmetry_multiplicity
  _atom_site_fract_x
  _atom_site_fract_y
  _atom_site_fract_z
  _atom_site_occupancy
  C   C1        1.0  0.29400  0.54400  0.21500  1.0000
  C   C2        1.0  0.72200  0.12400  0.23000  1.0000
  C   C3        1.0  0.78100  0.76300  0.24600  1.0000
  C   C4        1.0  0.21900  0.23700  0.75400  1.0000
  C   C5        1.0  0.27800  0.87600  0.77000  1.0000
  C   C6        1.0  0.70600  0.45600  0.78500  1.0000
  H   H1        1.0  0.27200  0.93200  0.14700  1.0000
  H   H2        1.0  0.80800  0.42600  0.15000  1.0000
  H   H3        1.0  0.29000  0.66700  0.20700  1.0000
  H   H4        1.0  0.91300  0.06320  0.22100  1.0000
  H   H5        1.0  0.63700  0.71000  0.26600  1.0000
  H   H6        1.0  0.26300  0.94200  0.39600  1.0000
  H   H7        1.0  0.77800  0.42500  0.39900  1.0000
  H   H8        1.0  0.22200  0.57500  0.60100  1.0000
  H   H9        1.0  0.73700  0.05790  0.60400  1.0000
  H   H10       1.0  0.36300  0.29000  0.73400  1.0000
  H   H11       1.0  0.08680  0.93700  0.77900  1.0000
  H   H12       1.0  0.71000  0.33300  0.79300  1.0000
  H   H13       1.0  0.19200  0.57400  0.85000  1.0000
  H   H14       1.0  0.72800  0.06840  0.85300  1.0000
  O   O1        1.0  0.26700  0.47900  0.05500  1.0000
  O   O2        1.0  0.63600  0.16800  0.06640  1.0000
  O   O3        1.0  0.82600  0.81000  0.07000  1.0000
  O   O4        1.0  0.22300  0.00256  0.26900  1.0000
  O   O5        1.0  0.87200  0.37100  0.27300  1.0000
  O   O6        1.0  0.32500  0.47600  0.38400  1.0000
  O   O7        1.0  0.87700  0.76800  0.40300  1.0000
  O   O8        1.0  0.61200  0.13800  0.40700  1.0000
  O   O9        1.0  0.38800  0.86200  0.59300  1.0000
  O   O10       1.0  0.12300  0.23200  0.59700  1.0000
  O   O11       1.0  0.67500  0.52400  0.61600  1.0000
  O   O12       1.0  0.12800  0.62900  0.72700  1.0000
  O   O13       1.0  0.77700  0.99700  0.73100  1.0000
  O   O14       1.0  0.17400  0.19000  0.93000  1.0000
  O   O15       1.0  0.36400  0.83200  0.93400  1.0000
  O   O16       1.0  0.73300  0.52100  0.94500  1.0000
  Yb  Yb1       1.0  0.25300  0.25300  0.25200  1.0000
  Yb  Yb2       1.0  0.74700  0.74700  0.74800  1.0000
