data_image0
_chemical_formula_structural       Ce2Ge8Mn4O24
_chemical_formula_sum              "Ce2 Ge8 Mn4 O24"
_cell_length_a       9.94667
_cell_length_b       9.94667
_cell_length_c       4.75882
_cell_angle_alpha    90
_cell_angle_beta     90
_cell_angle_gamma    90

_space_group_name_H-M_alt    "P 1"
_space_group_IT_number       1

loop_
  _space_group_symop_operation_xyz
  'x, y, z'

loop_
  _atom_site_type_symbol
  _atom_site_label
  _atom_site_symmetry_multiplicity
  _atom_site_fract_x
  _atom_site_fract_y
  _atom_site_fract_z
  _atom_site_occupancy
  Ce  Ce1       1.0  0.25000  0.25000  0.50000  1.0000
  Ce  Ce2       1.0  0.75000  0.75000  0.50000  1.0000
  Ge  Ge1       1.0  0.75000  0.03100  0.00000  1.0000
  Ge  Ge2       1.0  0.53100  0.25000  0.00000  1.0000
  Ge  Ge3       1.0  0.96900  0.25000  0.00000  1.0000
  Ge  Ge4       1.0  0.75000  0.46900  0.00000  1.0000
  Ge  Ge5       1.0  0.25000  0.53100  0.00000  1.0000
  Ge  Ge6       1.0  0.03100  0.75000  0.00000  1.0000
  Ge  Ge7       1.0  0.46900  0.75000  0.00000  1.0000
  Ge  Ge8       1.0  0.25000  0.96900  0.00000  1.0000
  Mn  Mn1       1.0  0.00000  0.00000  0.50000  1.0000
  Mn  Mn2       1.0  0.50000  0.00000  0.50000  1.0000
  Mn  Mn3       1.0  0.00000  0.50000  0.50000  1.0000
  Mn  Mn4       1.0  0.50000  0.50000  0.50000  1.0000
  O   O1        1.0  0.86400  0.13600  0.19700  1.0000
  O   O2        1.0  0.63600  0.36400  0.19700  1.0000
  O   O3        1.0  0.13600  0.63600  0.19700  1.0000
  O   O4        1.0  0.36400  0.86400  0.19700  1.0000
  O   O5        1.0  0.15700  0.05550  0.25300  1.0000
  O   O6        1.0  0.44400  0.15700  0.25300  1.0000
  O   O7        1.0  0.05550  0.34300  0.25300  1.0000
  O   O8        1.0  0.34300  0.44400  0.25300  1.0000
  O   O9        1.0  0.84300  0.55600  0.25300  1.0000
  O   O10       1.0  0.55600  0.65700  0.25300  1.0000
  O   O11       1.0  0.94400  0.84300  0.25300  1.0000
  O   O12       1.0  0.65700  0.94400  0.25300  1.0000
  O   O13       1.0  0.34300  0.05550  0.74700  1.0000
  O   O14       1.0  0.05550  0.15700  0.74700  1.0000
  O   O15       1.0  0.44400  0.34300  0.74700  1.0000
  O   O16       1.0  0.15700  0.44400  0.74700  1.0000
  O   O17       1.0  0.65700  0.55600  0.74700  1.0000
  O   O18       1.0  0.94400  0.65700  0.74700  1.0000
  O   O19       1.0  0.55600  0.84300  0.74700  1.0000
  O   O20       1.0  0.84300  0.94400  0.74700  1.0000
  O   O21       1.0  0.63600  0.13600  0.80300  1.0000
  O   O22       1.0  0.86400  0.36400  0.80300  1.0000
  O   O23       1.0  0.36400  0.63600  0.80300  1.0000
  O   O24       1.0  0.13600  0.86400  0.80300  1.0000
