data_image0
_chemical_formula_structural       C4H16Mn2N4O8S4
_chemical_formula_sum              "C4 H16 Mn2 N4 O8 S4"
_cell_length_a       7.61281
_cell_length_b       9.05711
_cell_length_c       7.15103
_cell_angle_alpha    90
_cell_angle_beta     112.585
_cell_angle_gamma    90

_space_group_name_H-M_alt    "P 1"
_space_group_IT_number       1

loop_
  _space_group_symop_operation_xyz
  'x, y, z'

loop_
  _atom_site_type_symbol
  _atom_site_label
  _atom_site_symmetry_multiplicity
  _atom_site_fract_x
  _atom_site_fract_y
  _atom_site_fract_z
  _atom_site_occupancy
  C   C1        1.0  0.78600  0.28800  0.14600  1.0000
  C   C2        1.0  0.21400  0.78800  0.35400  1.0000
  C   C3        1.0  0.78600  0.21200  0.64600  1.0000
  C   C4        1.0  0.21400  0.71200  0.85400  1.0000
  H   H1        1.0  0.83900  0.87500  0.04910  1.0000
  H   H2        1.0  0.29000  0.46000  0.09260  1.0000
  H   H3        1.0  0.36400  0.30000  0.16500  1.0000
  H   H4        1.0  0.23900  0.06210  0.17100  1.0000
  H   H5        1.0  0.76100  0.56200  0.32900  1.0000
  H   H6        1.0  0.63600  0.80000  0.33500  1.0000
  H   H7        1.0  0.71000  0.96000  0.40700  1.0000
  H   H8        1.0  0.16100  0.37500  0.45100  1.0000
  H   H9        1.0  0.83900  0.62500  0.54900  1.0000
  H   H10       1.0  0.29000  0.03990  0.59300  1.0000
  H   H11       1.0  0.36400  0.20000  0.66500  1.0000
  H   H12       1.0  0.23900  0.43800  0.67100  1.0000
  H   H13       1.0  0.76100  0.93800  0.82900  1.0000
  H   H14       1.0  0.63600  0.70000  0.83500  1.0000
  H   H15       1.0  0.71000  0.54000  0.90700  1.0000
  H   H16       1.0  0.16100  0.12500  0.95100  1.0000
  Mn  Mn1       1.0  0.50000  0.00000  0.00000  1.0000
  Mn  Mn2       1.0  0.50000  0.50000  0.50000  1.0000
  N   N1        1.0  0.69200  0.18000  0.11400  1.0000
  N   N2        1.0  0.30800  0.68000  0.38600  1.0000
  N   N3        1.0  0.69200  0.32000  0.61400  1.0000
  N   N4        1.0  0.30800  0.82000  0.88600  1.0000
  O   O1        1.0  0.27800  0.12400  0.07770  1.0000
  O   O2        1.0  0.39400  0.40600  0.19800  1.0000
  O   O3        1.0  0.60600  0.90600  0.30200  1.0000
  O   O4        1.0  0.72200  0.62400  0.42200  1.0000
  O   O5        1.0  0.27800  0.37600  0.57800  1.0000
  O   O6        1.0  0.39400  0.09420  0.69800  1.0000
  O   O7        1.0  0.60600  0.59400  0.80200  1.0000
  O   O8        1.0  0.72200  0.87600  0.92200  1.0000
  S   S1        1.0  0.91700  0.43600  0.18500  1.0000
  S   S2        1.0  0.08300  0.93600  0.31500  1.0000
  S   S3        1.0  0.91700  0.06370  0.68500  1.0000
  S   S4        1.0  0.08300  0.56400  0.81500  1.0000
