data_image0
_chemical_formula_structural       HoMn2Si2
_chemical_formula_sum              "Ho1 Mn2 Si2"
_cell_length_a       3.87392
_cell_length_b       3.87392
_cell_length_c       5.82635
_cell_angle_alpha    109.417
_cell_angle_beta     109.417
_cell_angle_gamma    90

_space_group_name_H-M_alt    "P 1"
_space_group_IT_number       1

loop_
  _space_group_symop_operation_xyz
  'x, y, z'

loop_
  _atom_site_type_symbol
  _atom_site_label
  _atom_site_symmetry_multiplicity
  _atom_site_fract_x
  _atom_site_fract_y
  _atom_site_fract_z
  _atom_site_occupancy
  Ho  Ho1       1.0  0.00000  0.00000  0.00000  1.0000
  Mn  Mn1       1.0  0.75000  0.25000  0.50000  1.0000
  Mn  Mn2       1.0  0.25000  0.75000  0.50000  1.0000
  Si  Si1       1.0  0.62000  0.62000  0.23900  1.0000
  Si  Si2       1.0  0.38000  0.38000  0.76100  1.0000
