data_image0
_chemical_formula_structural       C8H12Na4O14
_chemical_formula_sum              "C8 H12 Na4 O14"
_cell_length_a       3.41198
_cell_length_b       8.12535
_cell_length_c       13.2458
_cell_angle_alpha    95.3776
_cell_angle_beta     97.3999
_cell_angle_gamma    102.12

_space_group_name_H-M_alt    "P 1"
_space_group_IT_number       1

loop_
  _space_group_symop_operation_xyz
  'x, y, z'

loop_
  _atom_site_type_symbol
  _atom_site_label
  _atom_site_symmetry_multiplicity
  _atom_site_fract_x
  _atom_site_fract_y
  _atom_site_fract_z
  _atom_site_occupancy
  C   C1        1.0  0.06870  0.39100  0.02550  1.0000
  C   C2        1.0  0.06590  0.56000  0.07530  1.0000
  C   C3        1.0  0.93100  0.94000  0.42500  1.0000
  C   C4        1.0  0.15200  0.10900  0.47500  1.0000
  C   C5        1.0  0.84800  0.89100  0.52500  1.0000
  C   C6        1.0  0.06950  0.06010  0.57500  1.0000
  C   C7        1.0  0.93400  0.44000  0.92500  1.0000
  C   C8        1.0  0.93100  0.60900  0.97500  1.0000
  H   H1        1.0  0.77500  0.87700  0.04110  1.0000
  H   H2        1.0  0.84200  0.07010  0.08150  1.0000
  H   H3        1.0  0.34700  0.25600  0.18900  1.0000
  H   H4        1.0  0.40100  0.24400  0.31100  1.0000
  H   H5        1.0  0.19000  0.43000  0.41900  1.0000
  H   H6        1.0  0.35700  0.62300  0.45900  1.0000
  H   H7        1.0  0.64300  0.37700  0.54100  1.0000
  H   H8        1.0  0.81000  0.57000  0.58100  1.0000
  H   H9        1.0  0.59900  0.75600  0.68900  1.0000
  H   H10       1.0  0.65300  0.74400  0.81100  1.0000
  H   H11       1.0  0.15800  0.93000  0.91900  1.0000
  H   H12       1.0  0.22500  0.12300  0.95900  1.0000
  Na  Na1       1.0  0.32400  0.93000  0.21800  1.0000
  Na  Na2       1.0  0.67600  0.57000  0.28200  1.0000
  Na  Na3       1.0  0.32400  0.43000  0.71800  1.0000
  Na  Na4       1.0  0.67600  0.06990  0.78200  1.0000
  O   O1        1.0  0.16000  0.26100  0.05780  1.0000
  O   O2        1.0  0.76100  0.95600  0.10200  1.0000
  O   O3        1.0  0.14800  0.63000  0.16700  1.0000
  O   O4        1.0  0.54200  0.25000  0.25000  1.0000
  O   O5        1.0  0.85100  0.87000  0.33300  1.0000
  O   O6        1.0  0.20400  0.54400  0.39800  1.0000
  O   O7        1.0  0.34200  0.23900  0.44200  1.0000
  O   O8        1.0  0.65800  0.76100  0.55800  1.0000
  O   O9        1.0  0.79600  0.45600  0.60200  1.0000
  O   O10       1.0  0.14900  0.13000  0.66700  1.0000
  O   O11       1.0  0.45800  0.75000  0.75000  1.0000
  O   O12       1.0  0.85200  0.37000  0.83300  1.0000
  O   O13       1.0  0.23900  0.04420  0.89800  1.0000
  O   O14       1.0  0.84000  0.73900  0.94200  1.0000
