data_image0
_chemical_formula_structural       C2H18N8O8P2
_chemical_formula_sum              "C2 H18 N8 O8 P2"
_cell_length_a       6.66981
_cell_length_b       6.60418
_cell_length_c       7.3022
_cell_angle_alpha    86.6142
_cell_angle_beta     80.1682
_cell_angle_gamma    82.0992

_space_group_name_H-M_alt    "P 1"
_space_group_IT_number       1

loop_
  _space_group_symop_operation_xyz
  'x, y, z'

loop_
  _atom_site_type_symbol
  _atom_site_label
  _atom_site_symmetry_multiplicity
  _atom_site_fract_x
  _atom_site_fract_y
  _atom_site_fract_z
  _atom_site_occupancy
  C   C1        1.0  0.04740  0.24700  0.45100  1.0000
  C   C2        1.0  0.95300  0.75300  0.54900  1.0000
  H   H1        1.0  0.00000  0.00000  0.00000  1.0000
  H   H2        1.0  0.50000  0.00000  0.00000  1.0000
  H   H3        1.0  0.54000  0.52700  0.16000  1.0000
  H   H4        1.0  0.08640  0.24600  0.16700  1.0000
  H   H5        1.0  0.93700  0.77300  0.26800  1.0000
  H   H6        1.0  0.31300  0.21500  0.26800  1.0000
  H   H7        1.0  0.59800  0.93600  0.36200  1.0000
  H   H8        1.0  0.59200  0.69000  0.36400  1.0000
  H   H9        1.0  0.76900  0.31500  0.37100  1.0000
  H   H10       1.0  0.23500  0.71100  0.38700  1.0000
  H   H11       1.0  0.76500  0.28900  0.61300  1.0000
  H   H12       1.0  0.23100  0.68500  0.62900  1.0000
  H   H13       1.0  0.40800  0.31000  0.63600  1.0000
  H   H14       1.0  0.40200  0.06390  0.63800  1.0000
  H   H15       1.0  0.68700  0.78500  0.73200  1.0000
  H   H16       1.0  0.06260  0.22700  0.73200  1.0000
  H   H17       1.0  0.91400  0.75400  0.83300  1.0000
  H   H18       1.0  0.46000  0.47300  0.84000  1.0000
  N   N1        1.0  0.15700  0.24400  0.28100  1.0000
  N   N2        1.0  0.85600  0.76600  0.40100  1.0000
  N   N3        1.0  0.64100  0.80100  0.43000  1.0000
  N   N4        1.0  0.84200  0.26200  0.48000  1.0000
  N   N5        1.0  0.15800  0.73800  0.52000  1.0000
  N   N6        1.0  0.35900  0.19900  0.57000  1.0000
  N   N7        1.0  0.14400  0.23400  0.59900  1.0000
  N   N8        1.0  0.84300  0.75600  0.71900  1.0000
  O   O1        1.0  0.05640  0.82100  0.02360  1.0000
  O   O2        1.0  0.58800  0.07990  0.10200  1.0000
  O   O3        1.0  0.68300  0.42600  0.15800  1.0000
  O   O4        1.0  0.36300  0.65800  0.16700  1.0000
  O   O5        1.0  0.63700  0.34200  0.83300  1.0000
  O   O6        1.0  0.31700  0.57400  0.84200  1.0000
  O   O7        1.0  0.41200  0.92000  0.89800  1.0000
  O   O8        1.0  0.94400  0.17900  0.97600  1.0000
  P   P1        1.0  0.70900  0.25400  0.01220  1.0000
  P   P2        1.0  0.29100  0.74600  0.98800  1.0000
