data_image0
_chemical_formula_structural       Au4C12H12N8Sn2
_chemical_formula_sum              "Au4 C12 H12 N8 Sn2"
_cell_length_a       6.52138
_cell_length_b       10.6683
_cell_length_c       10.6682
_cell_angle_alpha    61.8016
_cell_angle_beta     107.438
_cell_angle_gamma    107.439

_space_group_name_H-M_alt    "P 1"
_space_group_IT_number       1

loop_
  _space_group_symop_operation_xyz
  'x, y, z'

loop_
  _atom_site_type_symbol
  _atom_site_label
  _atom_site_symmetry_multiplicity
  _atom_site_fract_x
  _atom_site_fract_y
  _atom_site_fract_z
  _atom_site_occupancy
  Au  Au1       1.0  0.00000  0.00000  0.00000  1.0000
  Au  Au2       1.0  0.50000  0.00000  0.00000  1.0000
  Au  Au3       1.0  0.75000  0.72600  0.27400  1.0000
  Au  Au4       1.0  0.25000  0.27400  0.72600  1.0000
  C   C1        1.0  0.04570  0.17600  0.03050  1.0000
  C   C2        1.0  0.54600  0.03050  0.17600  1.0000
  C   C3        1.0  0.49500  0.62400  0.18000  1.0000
  C   C4        1.0  0.88100  0.40700  0.19500  1.0000
  C   C5        1.0  0.00529  0.82000  0.37600  1.0000
  C   C6        1.0  0.38100  0.19500  0.40700  1.0000
  C   C7        1.0  0.61900  0.80500  0.59300  1.0000
  C   C8        1.0  0.99500  0.18000  0.62400  1.0000
  C   C9        1.0  0.11900  0.59300  0.80500  1.0000
  C   C10       1.0  0.50500  0.37600  0.82000  1.0000
  C   C11       1.0  0.45400  0.97000  0.82400  1.0000
  C   C12       1.0  0.95400  0.82400  0.97000  1.0000
  H   H1        1.0  0.74900  0.46100  0.17600  1.0000
  H   H2        1.0  0.82000  0.29100  0.22300  1.0000
  H   H3        1.0  0.01600  0.42400  0.27900  1.0000
  H   H4        1.0  0.32000  0.22300  0.29100  1.0000
  H   H5        1.0  0.51600  0.27900  0.42400  1.0000
  H   H6        1.0  0.24900  0.17600  0.46100  1.0000
  H   H7        1.0  0.75100  0.82400  0.53900  1.0000
  H   H8        1.0  0.48400  0.72100  0.57600  1.0000
  H   H9        1.0  0.68000  0.77700  0.70900  1.0000
  H   H10       1.0  0.98400  0.57600  0.72100  1.0000
  H   H11       1.0  0.18000  0.70900  0.77700  1.0000
  H   H12       1.0  0.25100  0.53900  0.82400  1.0000
  N   N1        1.0  0.07210  0.28100  0.04790  1.0000
  N   N2        1.0  0.34600  0.56500  0.12100  1.0000
  N   N3        1.0  0.57200  0.04790  0.28100  1.0000
  N   N4        1.0  0.15400  0.87900  0.43500  1.0000
  N   N5        1.0  0.84600  0.12100  0.56500  1.0000
  N   N6        1.0  0.42800  0.95200  0.71900  1.0000
  N   N7        1.0  0.65400  0.43500  0.87900  1.0000
  N   N8        1.0  0.92800  0.71900  0.95200  1.0000
  Sn  Sn1       1.0  0.00000  0.50000  0.00000  1.0000
  Sn  Sn2       1.0  0.50000  0.00000  0.50000  1.0000
