data_image0
_chemical_formula_structural       Bi2C6H12N6S12
_chemical_formula_sum              "Bi2 C6 H12 N6 S12"
_cell_length_a       5.83358
_cell_length_b       8.32693
_cell_length_c       12.4751
_cell_angle_alpha    103.444
_cell_angle_beta     95.5023
_cell_angle_gamma    90.504

_space_group_name_H-M_alt    "P 1"
_space_group_IT_number       1

loop_
  _space_group_symop_operation_xyz
  'x, y, z'

loop_
  _atom_site_type_symbol
  _atom_site_label
  _atom_site_symmetry_multiplicity
  _atom_site_fract_x
  _atom_site_fract_y
  _atom_site_fract_z
  _atom_site_occupancy
  Bi  Bi1       1.0  0.04890  0.64000  0.19000  1.0000
  Bi  Bi2       1.0  0.95100  0.36000  0.81000  1.0000
  C   C1        1.0  0.84800  0.17400  0.00796  1.0000
  C   C2        1.0  0.65500  0.41500  0.26600  1.0000
  C   C3        1.0  0.13500  0.96800  0.38300  1.0000
  C   C4        1.0  0.86500  0.03240  0.61700  1.0000
  C   C5        1.0  0.34500  0.58500  0.73400  1.0000
  C   C6        1.0  0.15200  0.82600  0.99200  1.0000
  H   H1        1.0  0.65800  0.03270  0.08490  1.0000
  H   H2        1.0  0.91000  0.12300  0.16200  1.0000
  H   H3        1.0  0.34600  0.28400  0.23500  1.0000
  H   H4        1.0  0.53500  0.24200  0.34200  1.0000
  H   H5        1.0  0.07400  0.21400  0.43600  1.0000
  H   H6        1.0  0.67600  0.85700  0.49800  1.0000
  H   H7        1.0  0.32400  0.14300  0.50200  1.0000
  H   H8        1.0  0.92600  0.78600  0.56400  1.0000
  H   H9        1.0  0.46500  0.75800  0.65800  1.0000
  H   H10       1.0  0.65400  0.71600  0.76500  1.0000
  H   H11       1.0  0.08980  0.87700  0.83800  1.0000
  H   H12       1.0  0.34200  0.96700  0.91500  1.0000
  N   N1        1.0  0.80000  0.10900  0.09090  1.0000
  N   N2        1.0  0.49600  0.31100  0.28600  1.0000
  N   N3        1.0  0.18500  0.12100  0.44200  1.0000
  N   N4        1.0  0.81500  0.87900  0.55800  1.0000
  N   N5        1.0  0.50400  0.68900  0.71400  1.0000
  N   N6        1.0  0.20000  0.89100  0.90900  1.0000
  S   S1        1.0  0.09970  0.29300  0.02320  1.0000
  S   S2        1.0  0.33300  0.86400  0.11100  1.0000
  S   S3        1.0  0.58500  0.52000  0.16500  1.0000
  S   S4        1.0  0.88000  0.93000  0.29700  1.0000
  S   S5        1.0  0.91800  0.44200  0.34200  1.0000
  S   S6        1.0  0.31600  0.81100  0.39100  1.0000
  S   S7        1.0  0.68400  0.18900  0.60900  1.0000
  S   S8        1.0  0.08170  0.55800  0.65800  1.0000
  S   S9        1.0  0.12000  0.07020  0.70300  1.0000
  S   S10       1.0  0.41500  0.48000  0.83500  1.0000
  S   S11       1.0  0.66700  0.13600  0.88900  1.0000
  S   S12       1.0  0.90000  0.70700  0.97700  1.0000
