data_image0
_chemical_formula_structural       Na3O6Sn2
_chemical_formula_sum              "Na3 O6 Sn2"
_cell_length_a       5.49187
_cell_length_b       5.49187
_cell_length_c       5.73331
_cell_angle_alpha    99.2612
_cell_angle_beta     99.2612
_cell_angle_gamma    119.971

_space_group_name_H-M_alt    "P 1"
_space_group_IT_number       1

loop_
  _space_group_symop_operation_xyz
  'x, y, z'

loop_
  _atom_site_type_symbol
  _atom_site_label
  _atom_site_symmetry_multiplicity
  _atom_site_fract_x
  _atom_site_fract_y
  _atom_site_fract_z
  _atom_site_occupancy
  Na  Na1       1.0  0.64800  0.35200  0.50000  1.0000
  Na  Na2       1.0  0.35200  0.64800  0.50000  1.0000
  Na  Na3       1.0  0.00000  0.00000  0.50000  1.0000
  O   O1        1.0  0.20100  0.20100  0.21800  1.0000
  O   O2        1.0  0.95300  0.57600  0.22300  1.0000
  O   O3        1.0  0.57600  0.95300  0.22300  1.0000
  O   O4        1.0  0.42400  0.04720  0.77700  1.0000
  O   O5        1.0  0.04720  0.42400  0.77700  1.0000
  O   O6        1.0  0.79900  0.79900  0.78200  1.0000
  Sn  Sn1       1.0  0.83300  0.16700  0.00000  1.0000
  Sn  Sn2       1.0  0.16700  0.83300  0.00000  1.0000
