data_image0
_chemical_formula_structural       Be17Hf2
_chemical_formula_sum              "Be17 Hf2"
_cell_length_a       5.6406
_cell_length_b       5.6406
_cell_length_c       5.6406
_cell_angle_alpha    97.0921
_cell_angle_beta     82.9079
_cell_angle_gamma    97.0921

_space_group_name_H-M_alt    "P 1"
_space_group_IT_number       1

loop_
  _space_group_symop_operation_xyz
  'x, y, z'

loop_
  _atom_site_type_symbol
  _atom_site_label
  _atom_site_symmetry_multiplicity
  _atom_site_fract_x
  _atom_site_fract_y
  _atom_site_fract_z
  _atom_site_occupancy
  Be  Be1       1.0  0.50000  0.50000  0.00000  1.0000
  Be  Be2       1.0  0.65900  0.84300  0.15700  1.0000
  Be  Be3       1.0  0.15700  0.34100  0.15700  1.0000
  Be  Be4       1.0  0.78800  0.50000  0.21200  1.0000
  Be  Be5       1.0  0.50000  0.21200  0.21200  1.0000
  Be  Be6       1.0  0.84300  0.15700  0.34100  1.0000
  Be  Be7       1.0  0.40300  0.59700  0.40300  1.0000
  Be  Be8       1.0  0.50000  0.00000  0.50000  1.0000
  Be  Be9       1.0  0.00000  0.50000  0.50000  1.0000
  Be  Be10      1.0  0.78800  0.78800  0.50000  1.0000
  Be  Be11      1.0  0.21200  0.21200  0.50000  1.0000
  Be  Be12      1.0  0.59700  0.40300  0.59700  1.0000
  Be  Be13      1.0  0.15700  0.84300  0.65900  1.0000
  Be  Be14      1.0  0.50000  0.78800  0.78800  1.0000
  Be  Be15      1.0  0.21200  0.50000  0.78800  1.0000
  Be  Be16      1.0  0.84300  0.65900  0.84300  1.0000
  Be  Be17      1.0  0.34100  0.15700  0.84300  1.0000
  Hf  Hf1       1.0  0.16200  0.83800  0.16200  1.0000
  Hf  Hf2       1.0  0.83800  0.16200  0.83800  1.0000
