data_image0
_chemical_formula_structural       C2H16N4Na4O8S4
_chemical_formula_sum              "C2 H16 N4 Na4 O8 S4"
_cell_length_a       6.4471
_cell_length_b       6.58502
_cell_length_c       11.9289
_cell_angle_alpha    63.6672
_cell_angle_beta     102.095
_cell_angle_gamma    105.103

_space_group_name_H-M_alt    "P 1"
_space_group_IT_number       1

loop_
  _space_group_symop_operation_xyz
  'x, y, z'

loop_
  _atom_site_type_symbol
  _atom_site_label
  _atom_site_symmetry_multiplicity
  _atom_site_fract_x
  _atom_site_fract_y
  _atom_site_fract_z
  _atom_site_occupancy
  C   C1        1.0  0.60600  0.25100  0.23300  1.0000
  C   C2        1.0  0.39300  0.74900  0.76700  1.0000
  H   H1        1.0  0.99900  0.11100  0.07180  1.0000
  H   H2        1.0  0.97500  0.76700  0.07510  1.0000
  H   H3        1.0  0.48700  0.95500  0.12400  1.0000
  H   H4        1.0  0.67100  0.81300  0.16000  1.0000
  H   H5        1.0  0.01970  0.32500  0.28700  1.0000
  H   H6        1.0  0.16400  0.16600  0.29000  1.0000
  H   H7        1.0  0.68200  0.88300  0.43900  1.0000
  H   H8        1.0  0.82500  0.71900  0.44400  1.0000
  H   H9        1.0  0.17500  0.28100  0.55600  1.0000
  H   H10       1.0  0.31800  0.11700  0.56100  1.0000
  H   H11       1.0  0.83600  0.83400  0.71000  1.0000
  H   H12       1.0  0.98000  0.67500  0.71300  1.0000
  H   H13       1.0  0.32900  0.18700  0.84000  1.0000
  H   H14       1.0  0.51300  0.04540  0.87600  1.0000
  H   H15       1.0  0.02520  0.23300  0.92500  1.0000
  H   H16       1.0  0.00087  0.88900  0.92800  1.0000
  N   N1        1.0  0.53000  0.25300  0.13300  1.0000
  N   N2        1.0  0.95800  0.82900  0.20300  1.0000
  N   N3        1.0  0.04180  0.17100  0.79700  1.0000
  N   N4        1.0  0.47000  0.74700  0.86700  1.0000
  Na  Na1       1.0  0.27500  0.54400  0.05240  1.0000
  Na  Na2       1.0  0.42600  0.54300  0.34500  1.0000
  Na  Na3       1.0  0.57400  0.45700  0.65500  1.0000
  Na  Na4       1.0  0.72500  0.45600  0.94800  1.0000
  O   O1        1.0  0.98900  0.73700  0.00223  1.0000
  O   O2        1.0  0.51000  0.79900  0.14500  1.0000
  O   O3        1.0  0.15400  0.32900  0.25700  1.0000
  O   O4        1.0  0.68000  0.71900  0.45900  1.0000
  O   O5        1.0  0.32000  0.28100  0.54100  1.0000
  O   O6        1.0  0.84600  0.67100  0.74300  1.0000
  O   O7        1.0  0.49000  0.20100  0.85500  1.0000
  O   O8        1.0  0.01140  0.26300  0.99800  1.0000
  S   S1        1.0  0.08930  0.78100  0.33500  1.0000
  S   S2        1.0  0.71500  0.24900  0.37100  1.0000
  S   S3        1.0  0.28500  0.75100  0.62900  1.0000
  S   S4        1.0  0.91100  0.21900  0.66500  1.0000
