data_image0
_chemical_formula_structural       Ni2P2Sm
_chemical_formula_sum              "Ni2 P2 Sm1"
_cell_length_a       3.92853
_cell_length_b       3.92853
_cell_length_c       5.47314
_cell_angle_alpha    111.032
_cell_angle_beta     111.032
_cell_angle_gamma    90

_space_group_name_H-M_alt    "P 1"
_space_group_IT_number       1

loop_
  _space_group_symop_operation_xyz
  'x, y, z'

loop_
  _atom_site_type_symbol
  _atom_site_label
  _atom_site_symmetry_multiplicity
  _atom_site_fract_x
  _atom_site_fract_y
  _atom_site_fract_z
  _atom_site_occupancy
  Ni  Ni1       1.0  0.75000  0.25000  0.50000  1.0000
  Ni  Ni2       1.0  0.25000  0.75000  0.50000  1.0000
  P   P1        1.0  0.62500  0.62500  0.25000  1.0000
  P   P2        1.0  0.37500  0.37500  0.75000  1.0000
  Sm  Sm1       1.0  0.00000  0.00000  0.00000  1.0000
