data_image0
_chemical_formula_structural       C10H24N4O2
_chemical_formula_sum              "C10 H24 N4 O2"
_cell_length_a       6.78937
_cell_length_b       5.33311
_cell_length_c       8.52556
_cell_angle_alpha    90
_cell_angle_beta     90
_cell_angle_gamma    90

_space_group_name_H-M_alt    "P 1"
_space_group_IT_number       1

loop_
  _space_group_symop_operation_xyz
  'x, y, z'

loop_
  _atom_site_type_symbol
  _atom_site_label
  _atom_site_symmetry_multiplicity
  _atom_site_fract_x
  _atom_site_fract_y
  _atom_site_fract_z
  _atom_site_occupancy
  C   C1        1.0  0.32100  0.32400  0.06350  1.0000
  C   C2        1.0  0.67900  0.32400  0.06350  1.0000
  C   C3        1.0  0.00000  0.87200  0.06970  1.0000
  C   C4        1.0  0.50000  0.64800  0.20800  1.0000
  C   C5        1.0  0.00000  0.35100  0.42100  1.0000
  C   C6        1.0  0.17900  0.67600  0.56400  1.0000
  C   C7        1.0  0.82100  0.67600  0.56400  1.0000
  C   C8        1.0  0.50000  0.12800  0.57000  1.0000
  C   C9        1.0  0.00000  0.35200  0.70800  1.0000
  C   C10       1.0  0.50000  0.64900  0.92100  1.0000
  H   H1        1.0  0.19100  0.44500  0.06930  1.0000
  H   H2        1.0  0.80900  0.44500  0.06930  1.0000
  H   H3        1.0  0.32600  0.20300  0.16700  1.0000
  H   H4        1.0  0.67400  0.20300  0.16700  1.0000
  H   H5        1.0  0.36700  0.76400  0.20800  1.0000
  H   H6        1.0  0.63300  0.76400  0.20800  1.0000
  H   H7        1.0  0.50000  0.52400  0.31100  1.0000
  H   H8        1.0  0.00000  0.47600  0.31900  1.0000
  H   H9        1.0  0.13200  0.23300  0.42200  1.0000
  H   H10       1.0  0.86800  0.23300  0.42200  1.0000
  H   H11       1.0  0.17700  0.78500  0.45500  1.0000
  H   H12       1.0  0.82300  0.78500  0.45500  1.0000
  H   H13       1.0  0.30900  0.55500  0.56900  1.0000
  H   H14       1.0  0.69100  0.55500  0.56900  1.0000
  H   H15       1.0  0.17400  0.79700  0.66700  1.0000
  H   H16       1.0  0.82600  0.79700  0.66700  1.0000
  H   H17       1.0  0.13300  0.23600  0.70800  1.0000
  H   H18       1.0  0.86700  0.23600  0.70800  1.0000
  H   H19       1.0  0.00000  0.47600  0.81100  1.0000
  H   H20       1.0  0.50000  0.52400  0.81900  1.0000
  H   H21       1.0  0.36800  0.76700  0.92200  1.0000
  H   H22       1.0  0.63200  0.76700  0.92200  1.0000
  H   H23       1.0  0.32300  0.21500  0.95500  1.0000
  H   H24       1.0  0.67700  0.21500  0.95500  1.0000
  N   N1        1.0  0.50000  0.48800  0.06460  1.0000
  N   N2        1.0  0.00000  0.86900  0.21000  1.0000
  N   N3        1.0  0.00000  0.51200  0.56500  1.0000
  N   N4        1.0  0.50000  0.13100  0.71000  1.0000
  O   O1        1.0  0.50000  0.12700  0.42500  1.0000
  O   O2        1.0  0.00000  0.87300  0.92500  1.0000
