data_image0
_chemical_formula_structural       C8H8K8N16
_chemical_formula_sum              "C8 H8 K8 N16"
_cell_length_a       7.06825
_cell_length_b       8.92011
_cell_length_c       8.8717
_cell_angle_alpha    90
_cell_angle_beta     90
_cell_angle_gamma    90

_space_group_name_H-M_alt    "P 1"
_space_group_IT_number       1

loop_
  _space_group_symop_operation_xyz
  'x, y, z'

loop_
  _atom_site_type_symbol
  _atom_site_label
  _atom_site_symmetry_multiplicity
  _atom_site_fract_x
  _atom_site_fract_y
  _atom_site_fract_z
  _atom_site_occupancy
  C   C1        1.0  0.27500  0.05940  0.00067  1.0000
  C   C2        1.0  0.97400  0.77000  0.19300  1.0000
  C   C3        1.0  0.02600  0.27000  0.30700  1.0000
  C   C4        1.0  0.72500  0.55900  0.49900  1.0000
  C   C5        1.0  0.22500  0.94100  0.50100  1.0000
  C   C6        1.0  0.52600  0.23000  0.69300  1.0000
  C   C7        1.0  0.47400  0.73000  0.80700  1.0000
  C   C8        1.0  0.77500  0.44100  0.99900  1.0000
  H   H1        1.0  0.67500  0.49400  0.19900  1.0000
  H   H2        1.0  0.07990  0.56700  0.22000  1.0000
  H   H3        1.0  0.92000  0.06740  0.28000  1.0000
  H   H4        1.0  0.32500  0.99400  0.30100  1.0000
  H   H5        1.0  0.82500  0.50600  0.69900  1.0000
  H   H6        1.0  0.42000  0.43300  0.72000  1.0000
  H   H7        1.0  0.58000  0.93300  0.78000  1.0000
  H   H8        1.0  0.17500  0.00576  0.80100  1.0000
  K   K1        1.0  0.76500  0.10500  0.00000  1.0000
  K   K2        1.0  0.26500  0.39500  0.00000  1.0000
  K   K3        1.0  0.48900  0.76100  0.14500  1.0000
  K   K4        1.0  0.51100  0.26100  0.35500  1.0000
  K   K5        1.0  0.73500  0.89500  0.50000  1.0000
  K   K6        1.0  0.23500  0.60500  0.50000  1.0000
  K   K7        1.0  0.01070  0.23900  0.64500  1.0000
  K   K8        1.0  0.98900  0.73900  0.85500  1.0000
  N   N1        1.0  0.63900  0.45700  0.09270  1.0000
  N   N2        1.0  0.38900  0.08260  0.09830  1.0000
  N   N3        1.0  0.10900  0.67500  0.18300  1.0000
  N   N4        1.0  0.85800  0.86800  0.19400  1.0000
  N   N5        1.0  0.14200  0.36800  0.30600  1.0000
  N   N6        1.0  0.89100  0.17500  0.31700  1.0000
  N   N7        1.0  0.61100  0.58300  0.40200  1.0000
  N   N8        1.0  0.36100  0.95700  0.40700  1.0000
  N   N9        1.0  0.86100  0.54300  0.59300  1.0000
  N   N10       1.0  0.11100  0.91700  0.59800  1.0000
  N   N11       1.0  0.39100  0.32500  0.68300  1.0000
  N   N12       1.0  0.64200  0.13200  0.69400  1.0000
  N   N13       1.0  0.35800  0.63200  0.80600  1.0000
  N   N14       1.0  0.60900  0.82500  0.81700  1.0000
  N   N15       1.0  0.88900  0.41700  0.90200  1.0000
  N   N16       1.0  0.13900  0.04290  0.90700  1.0000
