data_image0
_chemical_formula_structural       Li2MnO2
_chemical_formula_sum              "Li2 Mn1 O2"
_cell_length_a       3.18113
_cell_length_b       3.18121
_cell_length_c       5.23836
_cell_angle_alpha    90
_cell_angle_beta     89.9984
_cell_angle_gamma    120.001

_space_group_name_H-M_alt    "P 1"
_space_group_IT_number       1

loop_
  _space_group_symop_operation_xyz
  'x, y, z'

loop_
  _atom_site_type_symbol
  _atom_site_label
  _atom_site_symmetry_multiplicity
  _atom_site_fract_x
  _atom_site_fract_y
  _atom_site_fract_z
  _atom_site_occupancy
  Li  Li1       1.0  0.66700  0.33300  0.37000  1.0000
  Li  Li2       1.0  0.33300  0.66700  0.63000  1.0000
  Mn  Mn1       1.0  0.00000  0.00000  0.00000  1.0000
  O   O1        1.0  0.33300  0.66700  0.24700  1.0000
  O   O2        1.0  0.66700  0.33300  0.75300  1.0000
