data_image0
_chemical_formula_structural       Au2B2C8H22I2N4
_chemical_formula_sum              "Au2 B2 C8 H22 I2 N4"
_cell_length_a       6.05937
_cell_length_b       9.30402
_cell_length_c       9.67449
_cell_angle_alpha    115.958
_cell_angle_beta     91.0159
_cell_angle_gamma    102.074

_space_group_name_H-M_alt    "P 1"
_space_group_IT_number       1

loop_
  _space_group_symop_operation_xyz
  'x, y, z'

loop_
  _atom_site_type_symbol
  _atom_site_label
  _atom_site_symmetry_multiplicity
  _atom_site_fract_x
  _atom_site_fract_y
  _atom_site_fract_z
  _atom_site_occupancy
  Au  Au1       1.0  0.50000  0.00000  0.50000  1.0000
  Au  Au2       1.0  0.00000  0.00000  0.50000  1.0000
  B   B1        1.0  0.40000  0.43100  0.24300  1.0000
  B   B2        1.0  0.60000  0.56900  0.75700  1.0000
  C   C1        1.0  0.73400  0.44300  0.08690  1.0000
  C   C2        1.0  0.58900  0.20000  0.12400  1.0000
  C   C3        1.0  0.80700  0.45300  0.33900  1.0000
  C   C4        1.0  0.45900  0.75900  0.38900  1.0000
  C   C5        1.0  0.54100  0.24100  0.61100  1.0000
  C   C6        1.0  0.19300  0.54700  0.66100  1.0000
  C   C7        1.0  0.41100  0.80000  0.87600  1.0000
  C   C8        1.0  0.26600  0.55700  0.91300  1.0000
  H   H1        1.0  0.38700  0.61600  0.01880  1.0000
  H   H2        1.0  0.45800  0.15100  0.02460  1.0000
  H   H3        1.0  0.89500  0.40700  0.05970  1.0000
  H   H4        1.0  0.74600  0.16200  0.08640  1.0000
  H   H5        1.0  0.27200  0.37500  0.12500  1.0000
  H   H6        1.0  0.76200  0.57700  0.13800  1.0000
  H   H7        1.0  0.52700  0.15700  0.20800  1.0000
  H   H8        1.0  0.96100  0.40800  0.30500  1.0000
  H   H9        1.0  0.33100  0.37600  0.33100  1.0000
  H   H10       1.0  0.84700  0.58800  0.39100  1.0000
  H   H11       1.0  0.73200  0.41100  0.42100  1.0000
  H   H12       1.0  0.26800  0.58900  0.57900  1.0000
  H   H13       1.0  0.15300  0.41200  0.60900  1.0000
  H   H14       1.0  0.66900  0.62400  0.66900  1.0000
  H   H15       1.0  0.03900  0.59200  0.69500  1.0000
  H   H16       1.0  0.47300  0.84300  0.79200  1.0000
  H   H17       1.0  0.23800  0.42300  0.86200  1.0000
  H   H18       1.0  0.72800  0.62500  0.87500  1.0000
  H   H19       1.0  0.25400  0.83800  0.91400  1.0000
  H   H20       1.0  0.10500  0.59300  0.94000  1.0000
  H   H21       1.0  0.54200  0.84900  0.97500  1.0000
  H   H22       1.0  0.61300  0.38400  0.98100  1.0000
  I   I1        1.0  0.98600  0.95100  0.21400  1.0000
  I   I2        1.0  0.01440  0.04880  0.78600  1.0000
  N   N1        1.0  0.63700  0.38400  0.19900  1.0000
  N   N2        1.0  0.43900  0.61600  0.32400  1.0000
  N   N3        1.0  0.56100  0.38400  0.67600  1.0000
  N   N4        1.0  0.36300  0.61600  0.80100  1.0000
