data_image0
_chemical_formula_structural       C8H14O16V2
_chemical_formula_sum              "C8 H14 O16 V2"
_cell_length_a       7.21597
_cell_length_b       7.18983
_cell_length_c       8.1565
_cell_angle_alpha    107.042
_cell_angle_beta     96.1545
_cell_angle_gamma    111.772

_space_group_name_H-M_alt    "P 1"
_space_group_IT_number       1

loop_
  _space_group_symop_operation_xyz
  'x, y, z'

loop_
  _atom_site_type_symbol
  _atom_site_label
  _atom_site_symmetry_multiplicity
  _atom_site_fract_x
  _atom_site_fract_y
  _atom_site_fract_z
  _atom_site_occupancy
  C   C1        1.0  0.74300  0.93500  0.25800  1.0000
  C   C2        1.0  0.92900  0.13000  0.36400  1.0000
  C   C3        1.0  0.67200  0.92700  0.41800  1.0000
  C   C4        1.0  0.14500  0.87500  0.47600  1.0000
  C   C5        1.0  0.85500  0.12500  0.52400  1.0000
  C   C6        1.0  0.32800  0.07320  0.58200  1.0000
  C   C7        1.0  0.07130  0.87000  0.63600  1.0000
  C   C8        1.0  0.25700  0.06470  0.74200  1.0000
  H   H1        1.0  0.28600  0.56200  0.04930  1.0000
  H   H2        1.0  0.82900  0.28000  0.07810  1.0000
  H   H3        1.0  0.08760  0.83900  0.15100  1.0000
  H   H4        1.0  0.59700  0.30600  0.21200  1.0000
  H   H5        1.0  0.89000  0.52200  0.21600  1.0000
  H   H6        1.0  0.36700  0.62300  0.26700  1.0000
  H   H7        1.0  0.48000  0.23800  0.37200  1.0000
  H   H8        1.0  0.52000  0.76200  0.62800  1.0000
  H   H9        1.0  0.63300  0.37700  0.73300  1.0000
  H   H10       1.0  0.11000  0.47800  0.78400  1.0000
  H   H11       1.0  0.40300  0.69400  0.78800  1.0000
  H   H12       1.0  0.91200  0.16100  0.84900  1.0000
  H   H13       1.0  0.17100  0.72000  0.92200  1.0000
  H   H14       1.0  0.71400  0.43800  0.95100  1.0000
  O   O1        1.0  0.08300  0.88000  0.04310  1.0000
  O   O2        1.0  0.66800  0.80900  0.09940  1.0000
  O   O3        1.0  0.77200  0.38500  0.13200  1.0000
  O   O4        1.0  0.27200  0.50900  0.15100  1.0000
  O   O5        1.0  0.46300  0.24900  0.25100  1.0000
  O   O6        1.0  0.07100  0.76200  0.31500  1.0000
  O   O7        1.0  0.09460  0.24900  0.33900  1.0000
  O   O8        1.0  0.51900  0.79100  0.44500  1.0000
  O   O9        1.0  0.48100  0.20900  0.55500  1.0000
  O   O10       1.0  0.90500  0.75100  0.66100  1.0000
  O   O11       1.0  0.92900  0.23800  0.68500  1.0000
  O   O12       1.0  0.53700  0.75100  0.74900  1.0000
  O   O13       1.0  0.72800  0.49100  0.84900  1.0000
  O   O14       1.0  0.22800  0.61500  0.86800  1.0000
  O   O15       1.0  0.33200  0.19100  0.90100  1.0000
  O   O16       1.0  0.91700  0.12000  0.95700  1.0000
  V   V1        1.0  0.19800  0.20100  0.10900  1.0000
  V   V2        1.0  0.80200  0.79900  0.89100  1.0000
