data_image0
_chemical_formula_structural       C8H24S8
_chemical_formula_sum              "C8 H24 S8"
_cell_length_a       8.70818
_cell_length_b       6.49649
_cell_length_c       8.48868
_cell_angle_alpha    90
_cell_angle_beta     93.4252
_cell_angle_gamma    90

_space_group_name_H-M_alt    "P 1"
_space_group_IT_number       1

loop_
  _space_group_symop_operation_xyz
  'x, y, z'

loop_
  _atom_site_type_symbol
  _atom_site_label
  _atom_site_symmetry_multiplicity
  _atom_site_fract_x
  _atom_site_fract_y
  _atom_site_fract_z
  _atom_site_occupancy
  C   C1        1.0  0.13400  0.77800  0.05490  1.0000
  C   C2        1.0  0.59200  0.94000  0.19700  1.0000
  C   C3        1.0  0.40800  0.44000  0.30300  1.0000
  C   C4        1.0  0.86600  0.27800  0.44500  1.0000
  C   C5        1.0  0.13400  0.72200  0.55500  1.0000
  C   C6        1.0  0.59200  0.56000  0.69700  1.0000
  C   C7        1.0  0.40800  0.05960  0.80300  1.0000
  C   C8        1.0  0.86600  0.22200  0.94500  1.0000
  H   H1        1.0  0.88600  0.12600  0.05090  1.0000
  H   H2        1.0  0.02370  0.73000  0.09890  1.0000
  H   H3        1.0  0.58100  0.82800  0.09960  1.0000
  H   H4        1.0  0.20200  0.86600  0.14400  1.0000
  H   H5        1.0  0.61000  0.09390  0.14700  1.0000
  H   H6        1.0  0.51300  0.43900  0.23800  1.0000
  H   H7        1.0  0.48700  0.93900  0.26200  1.0000
  H   H8        1.0  0.39000  0.59400  0.35300  1.0000
  H   H9        1.0  0.79800  0.36600  0.35600  1.0000
  H   H10       1.0  0.41900  0.32800  0.40000  1.0000
  H   H11       1.0  0.97600  0.23000  0.40100  1.0000
  H   H12       1.0  0.11400  0.62600  0.44900  1.0000
  H   H13       1.0  0.88600  0.37400  0.55100  1.0000
  H   H14       1.0  0.02370  0.77000  0.59900  1.0000
  H   H15       1.0  0.58100  0.67200  0.60000  1.0000
  H   H16       1.0  0.20200  0.63400  0.64400  1.0000
  H   H17       1.0  0.61000  0.40600  0.64700  1.0000
  H   H18       1.0  0.51300  0.06140  0.73800  1.0000
  H   H19       1.0  0.48700  0.56100  0.76200  1.0000
  H   H20       1.0  0.39000  0.90600  0.85300  1.0000
  H   H21       1.0  0.79800  0.13400  0.85600  1.0000
  H   H22       1.0  0.41900  0.17200  0.90000  1.0000
  H   H23       1.0  0.97600  0.27000  0.90100  1.0000
  H   H24       1.0  0.11400  0.87400  0.94900  1.0000
  S   S1        1.0  0.76100  0.44500  0.00874  1.0000
  S   S2        1.0  0.24400  0.35800  0.17800  1.0000
  S   S3        1.0  0.75600  0.85800  0.32200  1.0000
  S   S4        1.0  0.23900  0.94500  0.49100  1.0000
  S   S5        1.0  0.76100  0.05450  0.50900  1.0000
  S   S6        1.0  0.24400  0.14200  0.67800  1.0000
  S   S7        1.0  0.75600  0.64200  0.82200  1.0000
  S   S8        1.0  0.23900  0.55500  0.99100  1.0000
