data_image0
_chemical_formula_structural       BaDyFe4O7
_chemical_formula_sum              "Ba1 Dy1 Fe4 O7"
_cell_length_a       6.39754
_cell_length_b       6.39754
_cell_length_c       6.39754
_cell_angle_alpha    120
_cell_angle_beta     90
_cell_angle_gamma    120

_space_group_name_H-M_alt    "P 1"
_space_group_IT_number       1

loop_
  _space_group_symop_operation_xyz
  'x, y, z'

loop_
  _atom_site_type_symbol
  _atom_site_label
  _atom_site_symmetry_multiplicity
  _atom_site_fract_x
  _atom_site_fract_y
  _atom_site_fract_z
  _atom_site_occupancy
  Ba  Ba1       1.0  0.25000  0.50000  0.75000  1.0000
  Dy  Dy1       1.0  0.00000  0.00000  0.00000  1.0000
  Fe  Fe1       1.0  0.61800  0.23600  0.38200  1.0000
  Fe  Fe2       1.0  0.14500  0.76400  0.38200  1.0000
  Fe  Fe3       1.0  0.61800  0.76400  0.38200  1.0000
  Fe  Fe4       1.0  0.61800  0.23600  0.85500  1.0000
  O   O1        1.0  0.75300  0.00000  0.24700  1.0000
  O   O2        1.0  0.24700  0.00000  0.24700  1.0000
  O   O3        1.0  0.24700  0.49400  0.24700  1.0000
  O   O4        1.0  0.75000  0.50000  0.25000  1.0000
  O   O5        1.0  0.24700  0.00000  0.75300  1.0000
  O   O6        1.0  0.75300  0.00000  0.75300  1.0000
  O   O7        1.0  0.75300  0.50600  0.75300  1.0000
