data_image0
_chemical_formula_structural       Al2K2O7Sb2
_chemical_formula_sum              "Al2 K2 O7 Sb2"
_cell_length_a       5.64394
_cell_length_b       5.644
_cell_length_c       7.9598
_cell_angle_alpha    90
_cell_angle_beta     89.9995
_cell_angle_gamma    120

_space_group_name_H-M_alt    "P 1"
_space_group_IT_number       1

loop_
  _space_group_symop_operation_xyz
  'x, y, z'

loop_
  _atom_site_type_symbol
  _atom_site_label
  _atom_site_symmetry_multiplicity
  _atom_site_fract_x
  _atom_site_fract_y
  _atom_site_fract_z
  _atom_site_occupancy
  Al  Al1       1.0  0.00001  0.00001  0.21500  1.0000
  Al  Al2       1.0  0.00000  0.00000  0.78500  1.0000
  K   K1        1.0  0.66700  0.33300  0.40900  1.0000
  K   K2        1.0  0.33300  0.66700  0.59100  1.0000
  O   O1        1.0  0.00000  0.00000  0.00000  1.0000
  O   O2        1.0  0.16900  0.83100  0.29500  1.0000
  O   O3        1.0  0.16900  0.33800  0.29500  1.0000
  O   O4        1.0  0.66200  0.83100  0.29500  1.0000
  O   O5        1.0  0.33800  0.16900  0.70500  1.0000
  O   O6        1.0  0.83100  0.66200  0.70500  1.0000
  O   O7        1.0  0.83100  0.16900  0.70500  1.0000
  Sb  Sb1       1.0  0.33300  0.66700  0.15400  1.0000
  Sb  Sb2       1.0  0.66700  0.33300  0.84600  1.0000
