data_image0
_chemical_formula_structural       Al8GdMn4
_chemical_formula_sum              "Al8 Gd1 Mn4"
_cell_length_a       5.16362
_cell_length_b       6.72989
_cell_length_c       6.72989
_cell_angle_alpha    98.4632
_cell_angle_beta     67.4411
_cell_angle_gamma    112.559

_space_group_name_H-M_alt    "P 1"
_space_group_IT_number       1

loop_
  _space_group_symop_operation_xyz
  'x, y, z'

loop_
  _atom_site_type_symbol
  _atom_site_label
  _atom_site_symmetry_multiplicity
  _atom_site_fract_x
  _atom_site_fract_y
  _atom_site_fract_z
  _atom_site_occupancy
  Al  Al1       1.0  0.50000  0.22500  0.22500  1.0000
  Al  Al2       1.0  0.27500  0.77500  0.22500  1.0000
  Al  Al3       1.0  0.00000  0.33800  0.33800  1.0000
  Al  Al4       1.0  0.66200  0.66200  0.33800  1.0000
  Al  Al5       1.0  0.33800  0.33800  0.66200  1.0000
  Al  Al6       1.0  0.00000  0.66200  0.66200  1.0000
  Al  Al7       1.0  0.72500  0.22500  0.77500  1.0000
  Al  Al8       1.0  0.50000  0.77500  0.77500  1.0000
  Gd  Gd1       1.0  0.00000  0.00000  0.00000  1.0000
  Mn  Mn1       1.0  0.00000  0.50000  0.00000  1.0000
  Mn  Mn2       1.0  0.50000  0.50000  0.00000  1.0000
  Mn  Mn3       1.0  0.00000  0.00000  0.50000  1.0000
  Mn  Mn4       1.0  0.50000  0.00000  0.50000  1.0000
