data_image0
_chemical_formula_structural       Al8Cu4Dy
_chemical_formula_sum              "Al8 Cu4 Dy1"
_cell_length_a       5.12378
_cell_length_b       6.71682
_cell_length_c       6.71682
_cell_angle_alpha    98.3649
_cell_angle_beta     67.5787
_cell_angle_gamma    112.421

_space_group_name_H-M_alt    "P 1"
_space_group_IT_number       1

loop_
  _space_group_symop_operation_xyz
  'x, y, z'

loop_
  _atom_site_type_symbol
  _atom_site_label
  _atom_site_symmetry_multiplicity
  _atom_site_fract_x
  _atom_site_fract_y
  _atom_site_fract_z
  _atom_site_occupancy
  Al  Al1       1.0  0.28100  0.78100  0.21900  1.0000
  Al  Al2       1.0  0.50000  0.21900  0.21900  1.0000
  Al  Al3       1.0  0.00000  0.34800  0.34800  1.0000
  Al  Al4       1.0  0.65200  0.65200  0.34800  1.0000
  Al  Al5       1.0  0.34800  0.34800  0.65200  1.0000
  Al  Al6       1.0  0.00000  0.65200  0.65200  1.0000
  Al  Al7       1.0  0.50000  0.78100  0.78100  1.0000
  Al  Al8       1.0  0.71900  0.21900  0.78100  1.0000
  Cu  Cu1       1.0  0.00000  0.50000  0.00000  1.0000
  Cu  Cu2       1.0  0.50000  0.50000  0.00000  1.0000
  Cu  Cu3       1.0  0.00000  0.00000  0.50000  1.0000
  Cu  Cu4       1.0  0.50000  0.00000  0.50000  1.0000
  Dy  Dy1       1.0  0.00000  0.00000  0.00000  1.0000
