data_image0
_chemical_formula_structural       B12Gd
_chemical_formula_sum              "B12 Gd1"
_cell_length_a       5.30398
_cell_length_b       5.30398
_cell_length_c       5.30398
_cell_angle_alpha    120
_cell_angle_beta     90
_cell_angle_gamma    120

_space_group_name_H-M_alt    "P 1"
_space_group_IT_number       1

loop_
  _space_group_symop_operation_xyz
  'x, y, z'

loop_
  _atom_site_type_symbol
  _atom_site_label
  _atom_site_symmetry_multiplicity
  _atom_site_fract_x
  _atom_site_fract_y
  _atom_site_fract_z
  _atom_site_occupancy
  B   B1        1.0  0.50000  0.00000  0.16300  1.0000
  B   B2        1.0  0.16300  0.66300  0.16300  1.0000
  B   B3        1.0  0.50000  0.66300  0.16300  1.0000
  B   B4        1.0  0.16300  0.00000  0.50000  1.0000
  B   B5        1.0  0.50000  0.33700  0.50000  1.0000
  B   B6        1.0  0.16300  0.66300  0.50000  1.0000
  B   B7        1.0  0.50000  0.66300  0.50000  1.0000
  B   B8        1.0  0.83700  0.33700  0.50000  1.0000
  B   B9        1.0  0.83700  0.00000  0.50000  1.0000
  B   B10       1.0  0.50000  0.33700  0.83700  1.0000
  B   B11       1.0  0.50000  0.00000  0.83700  1.0000
  B   B12       1.0  0.83700  0.33700  0.83700  1.0000
  Gd  Gd1       1.0  0.00000  0.00000  0.00000  1.0000
