data_image0
_chemical_formula_structural       Cu2P2Th
_chemical_formula_sum              "Cu2 P2 Th1"
_cell_length_a       4.01681
_cell_length_b       4.01685
_cell_length_c       6.47896
_cell_angle_alpha    90
_cell_angle_beta     90.0007
_cell_angle_gamma    120

_space_group_name_H-M_alt    "P 1"
_space_group_IT_number       1

loop_
  _space_group_symop_operation_xyz
  'x, y, z'

loop_
  _atom_site_type_symbol
  _atom_site_label
  _atom_site_symmetry_multiplicity
  _atom_site_fract_x
  _atom_site_fract_y
  _atom_site_fract_z
  _atom_site_occupancy
  Cu  Cu1       1.0  0.66700  0.33300  0.36300  1.0000
  Cu  Cu2       1.0  0.33300  0.66700  0.63700  1.0000
  P   P1        1.0  0.33300  0.66700  0.26700  1.0000
  P   P2        1.0  0.66700  0.33300  0.73300  1.0000
  Th  Th1       1.0  0.00000  0.00000  0.00000  1.0000
