data_image0
_chemical_formula_structural       Be12Mn
_chemical_formula_sum              "Be12 Mn1"
_cell_length_a       4.10054
_cell_length_b       5.44571
_cell_length_c       5.44571
_cell_angle_alpha    98.1412
_cell_angle_beta     67.8812
_cell_angle_gamma    112.119

_space_group_name_H-M_alt    "P 1"
_space_group_IT_number       1

loop_
  _space_group_symop_operation_xyz
  'x, y, z'

loop_
  _atom_site_type_symbol
  _atom_site_label
  _atom_site_symmetry_multiplicity
  _atom_site_fract_x
  _atom_site_fract_y
  _atom_site_fract_z
  _atom_site_occupancy
  Be  Be1       1.0  0.50000  0.50000  0.00000  1.0000
  Be  Be2       1.0  0.00000  0.50000  0.00000  1.0000
  Be  Be3       1.0  0.29100  0.79100  0.20900  1.0000
  Be  Be4       1.0  0.50000  0.20900  0.20900  1.0000
  Be  Be5       1.0  0.00000  0.34700  0.34700  1.0000
  Be  Be6       1.0  0.65300  0.65300  0.34700  1.0000
  Be  Be7       1.0  0.00000  0.00000  0.50000  1.0000
  Be  Be8       1.0  0.50000  0.00000  0.50000  1.0000
  Be  Be9       1.0  0.34700  0.34700  0.65300  1.0000
  Be  Be10      1.0  0.00000  0.65300  0.65300  1.0000
  Be  Be11      1.0  0.50000  0.79100  0.79100  1.0000
  Be  Be12      1.0  0.70900  0.20900  0.79100  1.0000
  Mn  Mn1       1.0  0.00000  0.00000  0.00000  1.0000
