data_image0
_chemical_formula_structural       Fe2H4O8
_chemical_formula_sum              "Fe2 H4 O8"
_cell_length_a       5.18252
_cell_length_b       5.18252
_cell_length_c       5.18252
_cell_angle_alpha    120.002
_cell_angle_beta     89.9961
_cell_angle_gamma    120.002

_space_group_name_H-M_alt    "P 1"
_space_group_IT_number       1

loop_
  _space_group_symop_operation_xyz
  'x, y, z'

loop_
  _atom_site_type_symbol
  _atom_site_label
  _atom_site_symmetry_multiplicity
  _atom_site_fract_x
  _atom_site_fract_y
  _atom_site_fract_z
  _atom_site_occupancy
  Fe  Fe1       1.0  0.00000  0.00000  0.00000  1.0000
  Fe  Fe2       1.0  0.75000  0.50000  0.25000  1.0000
  H   H1        1.0  0.37500  0.75000  0.12500  1.0000
  H   H2        1.0  0.37500  0.75000  0.62500  1.0000
  H   H3        1.0  0.87500  0.25000  0.62500  1.0000
  H   H4        1.0  0.37500  0.25000  0.62500  1.0000
  O   O1        1.0  0.14100  0.76100  0.38000  1.0000
  O   O2        1.0  0.62000  0.23900  0.38000  1.0000
  O   O3        1.0  0.62000  0.76100  0.38000  1.0000
  O   O4        1.0  0.13000  0.26100  0.39100  1.0000
  O   O5        1.0  0.62000  0.23900  0.85900  1.0000
  O   O6        1.0  0.13000  0.73900  0.87000  1.0000
  O   O7        1.0  0.60900  0.73900  0.87000  1.0000
  O   O8        1.0  0.13000  0.26100  0.87000  1.0000
