data_image0
_chemical_formula_structural       H3O6V2
_chemical_formula_sum              "H3 O6 V2"
_cell_length_a       5.08125
_cell_length_b       5.08126
_cell_length_c       4.41919
_cell_angle_alpha    98.4116
_cell_angle_beta     98.411
_cell_angle_gamma    126.091

_space_group_name_H-M_alt    "P 1"
_space_group_IT_number       1

loop_
  _space_group_symop_operation_xyz
  'x, y, z'

loop_
  _atom_site_type_symbol
  _atom_site_label
  _atom_site_symmetry_multiplicity
  _atom_site_fract_x
  _atom_site_fract_y
  _atom_site_fract_z
  _atom_site_occupancy
  H   H1        1.0  0.37800  0.62200  0.00000  1.0000
  H   H2        1.0  0.49900  0.50100  0.50000  1.0000
  H   H3        1.0  0.99100  0.00854  0.50000  1.0000
  O   O1        1.0  0.55600  0.88900  0.20500  1.0000
  O   O2        1.0  0.92100  0.56300  0.24500  1.0000
  O   O3        1.0  0.19600  0.20300  0.32700  1.0000
  O   O4        1.0  0.79700  0.80400  0.67300  1.0000
  O   O5        1.0  0.43700  0.07880  0.75500  1.0000
  O   O6        1.0  0.11100  0.44400  0.79500  1.0000
  V   V1        1.0  0.81000  0.19000  0.00000  1.0000
  V   V2        1.0  0.14400  0.85600  0.00000  1.0000
