data_image0
_chemical_formula_structural       Er3Pa
_chemical_formula_sum              "Er3 Pa1"
_cell_length_a       5.96672
_cell_length_b       5.96672
_cell_length_c       5.96672
_cell_angle_alpha    131.75
_cell_angle_beta     131.75
_cell_angle_gamma    70.6235

_space_group_name_H-M_alt    "P 1"
_space_group_IT_number       1

loop_
  _space_group_symop_operation_xyz
  'x, y, z'

loop_
  _atom_site_type_symbol
  _atom_site_label
  _atom_site_symmetry_multiplicity
  _atom_site_fract_x
  _atom_site_fract_y
  _atom_site_fract_z
  _atom_site_occupancy
  Er  Er1       1.0  0.75000  0.25000  0.50000  1.0000
  Er  Er2       1.0  0.25000  0.75000  0.50000  1.0000
  Er  Er3       1.0  0.50000  0.50000  0.00000  1.0000
  Pa  Pa1       1.0  0.00000  0.00000  0.00000  1.0000
