data_image0
_chemical_formula_structural       Ge4Li6O11
_chemical_formula_sum              "Ge4 Li6 O11"
_cell_length_a       10.0801
_cell_length_b       5.02634
_cell_length_c       5
_cell_angle_alpha    100.014
_cell_angle_beta     98.4787
_cell_angle_gamma    121.173

_space_group_name_H-M_alt    "P 1"
_space_group_IT_number       1

loop_
  _space_group_symop_operation_xyz
  'x, y, z'

loop_
  _atom_site_type_symbol
  _atom_site_label
  _atom_site_symmetry_multiplicity
  _atom_site_fract_x
  _atom_site_fract_y
  _atom_site_fract_z
  _atom_site_occupancy
  Ge  Ge1       1.0  0.92400  0.17400  0.00099  1.0000
  Ge  Ge2       1.0  0.08010  0.84000  0.00893  1.0000
  Ge  Ge3       1.0  0.59700  0.87000  0.96800  1.0000
  Ge  Ge4       1.0  0.40600  0.11400  0.99100  1.0000
  Li  Li1       1.0  0.72700  0.70300  0.48400  1.0000
  Li  Li2       1.0  0.15900  0.64700  0.49400  1.0000
  Li  Li3       1.0  0.83700  0.34400  0.50400  1.0000
  Li  Li4       1.0  0.29800  0.30300  0.52800  1.0000
  Li  Li5       1.0  0.22600  0.46300  0.96000  1.0000
  Li  Li6       1.0  0.75100  0.51300  0.99700  1.0000
  O   O1        1.0  0.60500  0.21200  0.21400  1.0000
  O   O2        1.0  0.77900  0.94100  0.21400  1.0000
  O   O3        1.0  0.11500  0.23500  0.22200  1.0000
  O   O4        1.0  0.96400  0.56800  0.22400  1.0000
  O   O5        1.0  0.29100  0.96800  0.24400  1.0000
  O   O6        1.0  0.71900  0.05760  0.74600  1.0000
  O   O7        1.0  0.03730  0.44300  0.78000  1.0000
  O   O8        1.0  0.38700  0.75400  0.78300  1.0000
  O   O9        1.0  0.89200  0.78200  0.78800  1.0000
  O   O10       1.0  0.21900  0.06510  0.79000  1.0000
  O   O11       1.0  0.52200  0.44000  0.83400  1.0000
