data_image0
_chemical_formula_structural       CaZr5
_chemical_formula_sum              "Ca1 Zr5"
_cell_length_a       5.73716
_cell_length_b       5.73716
_cell_length_c       5.22117
_cell_angle_alpha    90
_cell_angle_beta     90
_cell_angle_gamma    59.9564

_space_group_name_H-M_alt    "P 1"
_space_group_IT_number       1

loop_
  _space_group_symop_operation_xyz
  'x, y, z'

loop_
  _atom_site_type_symbol
  _atom_site_label
  _atom_site_symmetry_multiplicity
  _atom_site_fract_x
  _atom_site_fract_y
  _atom_site_fract_z
  _atom_site_occupancy
  Ca  Ca1       1.0  0.99900  0.00088  0.00000  1.0000
  Zr  Zr1       1.0  0.33300  0.33400  0.00000  1.0000
  Zr  Zr2       1.0  0.66600  0.66700  0.00000  1.0000
  Zr  Zr3       1.0  0.00049  0.36400  0.50000  1.0000
  Zr  Zr4       1.0  0.36500  0.63500  0.50000  1.0000
  Zr  Zr5       1.0  0.63600  0.00000  0.50000  1.0000
