data_image0
_chemical_formula_structural       B6Fe3Gd4
_chemical_formula_sum              "B6 Fe3 Gd4"
_cell_length_a       5.31369
_cell_length_b       5.31369
_cell_length_c       7.8487
_cell_angle_alpha    70.214
_cell_angle_beta     109.786
_cell_angle_gamma    120

_space_group_name_H-M_alt    "P 1"
_space_group_IT_number       1

loop_
  _space_group_symop_operation_xyz
  'x, y, z'

loop_
  _atom_site_type_symbol
  _atom_site_label
  _atom_site_symmetry_multiplicity
  _atom_site_fract_x
  _atom_site_fract_y
  _atom_site_fract_z
  _atom_site_occupancy
  B   B1        1.0  0.50000  0.16700  0.50000  1.0000
  B   B2        1.0  0.16700  0.16700  0.50000  1.0000
  B   B3        1.0  0.83300  0.50000  0.50000  1.0000
  B   B4        1.0  0.16700  0.50000  0.50000  1.0000
  B   B5        1.0  0.83300  0.83300  0.50000  1.0000
  B   B6        1.0  0.50000  0.83300  0.50000  1.0000
  Fe  Fe1       1.0  0.00000  0.00000  0.00000  1.0000
  Fe  Fe2       1.0  0.11000  0.89000  0.33100  1.0000
  Fe  Fe3       1.0  0.89000  0.11000  0.66900  1.0000
  Gd  Gd1       1.0  0.74300  0.25700  0.22800  1.0000
  Gd  Gd2       1.0  0.41000  0.59000  0.23000  1.0000
  Gd  Gd3       1.0  0.59000  0.41000  0.77000  1.0000
  Gd  Gd4       1.0  0.25700  0.74300  0.77200  1.0000
