data_image0
_chemical_formula_structural       Cu2S2Y
_chemical_formula_sum              "Cu2 S2 Y1"
_cell_length_a       3.8598
_cell_length_b       3.8598
_cell_length_c       6.5399
_cell_angle_alpha    90.0024
_cell_angle_beta     89.9976
_cell_angle_gamma    120.002

_space_group_name_H-M_alt    "P 1"
_space_group_IT_number       1

loop_
  _space_group_symop_operation_xyz
  'x, y, z'

loop_
  _atom_site_type_symbol
  _atom_site_label
  _atom_site_symmetry_multiplicity
  _atom_site_fract_x
  _atom_site_fract_y
  _atom_site_fract_z
  _atom_site_occupancy
  Cu  Cu1       1.0  0.33300  0.66700  0.35700  1.0000
  Cu  Cu2       1.0  0.66700  0.33300  0.64300  1.0000
  S   S1        1.0  0.66700  0.33300  0.26400  1.0000
  S   S2        1.0  0.33300  0.66700  0.73600  1.0000
  Y   Y1        1.0  0.00000  0.00000  0.00000  1.0000
