data_image0
_chemical_formula_structural       EuMn2Sb2
_chemical_formula_sum              "Eu1 Mn2 Sb2"
_cell_length_a       4.49272
_cell_length_b       4.49287
_cell_length_c       7.67271
_cell_angle_alpha    90
_cell_angle_beta     89.9997
_cell_angle_gamma    120.001

_space_group_name_H-M_alt    "P 1"
_space_group_IT_number       1

loop_
  _space_group_symop_operation_xyz
  'x, y, z'

loop_
  _atom_site_type_symbol
  _atom_site_label
  _atom_site_symmetry_multiplicity
  _atom_site_fract_x
  _atom_site_fract_y
  _atom_site_fract_z
  _atom_site_occupancy
  Eu  Eu1       1.0  0.00000  0.00000  0.00000  1.0000
  Mn  Mn1       1.0  0.66700  0.33300  0.37800  1.0000
  Mn  Mn2       1.0  0.33300  0.66700  0.62200  1.0000
  Sb  Sb1       1.0  0.33300  0.66700  0.26100  1.0000
  Sb  Sb2       1.0  0.66700  0.33300  0.73900  1.0000
