data_image0
_chemical_formula_structural       Au3In2
_chemical_formula_sum              "Au3 In2"
_cell_length_a       4.66442
_cell_length_b       4.66426
_cell_length_c       5.76833
_cell_angle_alpha    90.0004
_cell_angle_beta     90.0009
_cell_angle_gamma    120

_space_group_name_H-M_alt    "P 1"
_space_group_IT_number       1

loop_
  _space_group_symop_operation_xyz
  'x, y, z'

loop_
  _atom_site_type_symbol
  _atom_site_label
  _atom_site_symmetry_multiplicity
  _atom_site_fract_x
  _atom_site_fract_y
  _atom_site_fract_z
  _atom_site_occupancy
  Au  Au1       1.0  0.00000  0.00000  0.00000  1.0000
  Au  Au2       1.0  0.33300  0.66700  0.19100  1.0000
  Au  Au3       1.0  0.66700  0.33300  0.80900  1.0000
  In  In1       1.0  0.66700  0.33300  0.32300  1.0000
  In  In2       1.0  0.33300  0.66700  0.67700  1.0000
