data_image0
_chemical_formula_structural       Pu2Rb6
_chemical_formula_sum              "Pu2 Rb6"
_cell_length_a       9.26827
_cell_length_b       9.26827
_cell_length_c       7.61306
_cell_angle_alpha    90
_cell_angle_beta     90
_cell_angle_gamma    120

_space_group_name_H-M_alt    "P 1"
_space_group_IT_number       1

loop_
  _space_group_symop_operation_xyz
  'x, y, z'

loop_
  _atom_site_type_symbol
  _atom_site_label
  _atom_site_symmetry_multiplicity
  _atom_site_fract_x
  _atom_site_fract_y
  _atom_site_fract_z
  _atom_site_occupancy
  Pu  Pu1       1.0  0.33300  0.66700  0.75000  1.0000
  Pu  Pu2       1.0  0.66700  0.33300  0.25000  1.0000
  Rb  Rb1       1.0  0.16900  0.33900  0.25000  1.0000
  Rb  Rb2       1.0  0.66100  0.83100  0.25000  1.0000
  Rb  Rb3       1.0  0.16900  0.83100  0.25000  1.0000
  Rb  Rb4       1.0  0.83100  0.66100  0.75000  1.0000
  Rb  Rb5       1.0  0.33900  0.16900  0.75000  1.0000
  Rb  Rb6       1.0  0.83100  0.16900  0.75000  1.0000
