data_image0
_chemical_formula_structural       N2Sr2Zn
_chemical_formula_sum              "N2 Sr2 Zn1"
_cell_length_a       3.85141
_cell_length_b       3.85141
_cell_length_c       6.9604
_cell_angle_alpha    106.061
_cell_angle_beta     106.061
_cell_angle_gamma    90

_space_group_name_H-M_alt    "P 1"
_space_group_IT_number       1

loop_
  _space_group_symop_operation_xyz
  'x, y, z'

loop_
  _atom_site_type_symbol
  _atom_site_label
  _atom_site_symmetry_multiplicity
  _atom_site_fract_x
  _atom_site_fract_y
  _atom_site_fract_z
  _atom_site_occupancy
  N   N1        1.0  0.14400  0.14400  0.28800  1.0000
  N   N2        1.0  0.85600  0.85600  0.71200  1.0000
  Sr  Sr1       1.0  0.65900  0.65900  0.31800  1.0000
  Sr  Sr2       1.0  0.34100  0.34100  0.68200  1.0000
  Zn  Zn1       1.0  0.00000  0.00000  0.00000  1.0000
