data_image0
_chemical_formula_structural       Mg2Mn4O8
_chemical_formula_sum              "Mg2 Mn4 O8"
_cell_length_a       5.74921
_cell_length_b       5.74921
_cell_length_c       6.15602
_cell_angle_alpha    117.837
_cell_angle_beta     117.837
_cell_angle_gamma    90

_space_group_name_H-M_alt    "P 1"
_space_group_IT_number       1

loop_
  _space_group_symop_operation_xyz
  'x, y, z'

loop_
  _atom_site_type_symbol
  _atom_site_label
  _atom_site_symmetry_multiplicity
  _atom_site_fract_x
  _atom_site_fract_y
  _atom_site_fract_z
  _atom_site_occupancy
  Mg  Mg1       1.0  0.00000  0.00000  0.00000  1.0000
  Mg  Mg2       1.0  0.25000  0.75000  0.50000  1.0000
  Mn  Mn1       1.0  0.62500  0.37500  0.25000  1.0000
  Mn  Mn2       1.0  0.62500  0.87500  0.25000  1.0000
  Mn  Mn3       1.0  0.12500  0.37500  0.75000  1.0000
  Mn  Mn4       1.0  0.62500  0.37500  0.75000  1.0000
  O   O1        1.0  0.39200  0.62000  0.24000  1.0000
  O   O2        1.0  0.84900  0.62000  0.24000  1.0000
  O   O3        1.0  0.40100  0.13000  0.26000  1.0000
  O   O4        1.0  0.85800  0.13000  0.26000  1.0000
  O   O5        1.0  0.87000  0.14200  0.74000  1.0000
  O   O6        1.0  0.87000  0.59900  0.74000  1.0000
  O   O7        1.0  0.38000  0.15100  0.76000  1.0000
  O   O8        1.0  0.38000  0.60800  0.76000  1.0000
