data_image0
_chemical_formula_structural       Fe2Si2Yb2
_chemical_formula_sum              "Fe2 Si2 Yb2"
_cell_length_a       4.07607
_cell_length_b       4.07607
_cell_length_c       6.48517
_cell_angle_alpha    90
_cell_angle_beta     90
_cell_angle_gamma    90

_space_group_name_H-M_alt    "P 1"
_space_group_IT_number       1

loop_
  _space_group_symop_operation_xyz
  'x, y, z'

loop_
  _atom_site_type_symbol
  _atom_site_label
  _atom_site_symmetry_multiplicity
  _atom_site_fract_x
  _atom_site_fract_y
  _atom_site_fract_z
  _atom_site_occupancy
  Fe  Fe1       1.0  0.75000  0.25000  0.00000  1.0000
  Fe  Fe2       1.0  0.25000  0.75000  0.00000  1.0000
  Si  Si1       1.0  0.25000  0.25000  0.16600  1.0000
  Si  Si2       1.0  0.75000  0.75000  0.83400  1.0000
  Yb  Yb1       1.0  0.75000  0.75000  0.31700  1.0000
  Yb  Yb2       1.0  0.25000  0.25000  0.68300  1.0000
