data_image0
_chemical_formula_structural       Sc4Zn8
_chemical_formula_sum              "Sc4 Zn8"
_cell_length_a       5.24855
_cell_length_b       5.24847
_cell_length_c       8.45294
_cell_angle_alpha    90
_cell_angle_beta     90
_cell_angle_gamma    120.001

_space_group_name_H-M_alt    "P 1"
_space_group_IT_number       1

loop_
  _space_group_symop_operation_xyz
  'x, y, z'

loop_
  _atom_site_type_symbol
  _atom_site_label
  _atom_site_symmetry_multiplicity
  _atom_site_fract_x
  _atom_site_fract_y
  _atom_site_fract_z
  _atom_site_occupancy
  Sc  Sc1       1.0  0.66700  0.33300  0.06210  1.0000
  Sc  Sc2       1.0  0.66700  0.33300  0.43800  1.0000
  Sc  Sc3       1.0  0.33300  0.66700  0.56200  1.0000
  Sc  Sc4       1.0  0.33300  0.66700  0.93800  1.0000
  Zn  Zn1       1.0  0.00000  0.00000  0.00000  1.0000
  Zn  Zn2       1.0  0.17100  0.34200  0.25000  1.0000
  Zn  Zn3       1.0  0.17100  0.82900  0.25000  1.0000
  Zn  Zn4       1.0  0.65800  0.82900  0.25000  1.0000
  Zn  Zn5       1.0  0.00000  0.00000  0.50000  1.0000
  Zn  Zn6       1.0  0.34200  0.17100  0.75000  1.0000
  Zn  Zn7       1.0  0.82900  0.17100  0.75000  1.0000
  Zn  Zn8       1.0  0.82900  0.65800  0.75000  1.0000
