data_image0
_chemical_formula_structural       Mg8Pm6
_chemical_formula_sum              "Mg8 Pm6"
_cell_length_a       9.14331
_cell_length_b       9.14329
_cell_length_c       5.46062
_cell_angle_alpha    90
_cell_angle_beta     90
_cell_angle_gamma    59.9997

_space_group_name_H-M_alt    "P 1"
_space_group_IT_number       1

loop_
  _space_group_symop_operation_xyz
  'x, y, z'

loop_
  _atom_site_type_symbol
  _atom_site_label
  _atom_site_symmetry_multiplicity
  _atom_site_fract_x
  _atom_site_fract_y
  _atom_site_fract_z
  _atom_site_occupancy
  Mg  Mg1       1.0  0.98200  0.00858  0.00000  1.0000
  Mg  Mg2       1.0  0.58100  0.12400  0.00000  1.0000
  Mg  Mg3       1.0  0.14300  0.28600  0.00000  1.0000
  Mg  Mg4       1.0  0.86600  0.72400  0.00000  1.0000
  Mg  Mg5       1.0  0.37100  0.11400  0.50000  1.0000
  Mg  Mg6       1.0  0.97100  0.23000  0.50000  1.0000
  Mg  Mg7       1.0  0.08660  0.51400  0.50000  1.0000
  Mg  Mg8       1.0  0.81000  0.95200  0.50000  1.0000
  Pm  Pm1       1.0  0.73800  0.42900  0.00000  1.0000
  Pm  Pm2       1.0  0.28600  0.54700  0.00000  1.0000
  Pm  Pm3       1.0  0.40400  0.88100  0.00000  1.0000
  Pm  Pm4       1.0  0.54900  0.35700  0.50000  1.0000
  Pm  Pm5       1.0  0.66600  0.69100  0.50000  1.0000
  Pm  Pm6       1.0  0.21400  0.80900  0.50000  1.0000
