data_image0
_chemical_formula_structural       Co4Hf6
_chemical_formula_sum              "Co4 Hf6"
_cell_length_a       6.04647
_cell_length_b       6.04647
_cell_length_c       6.7213
_cell_angle_alpha    116.731
_cell_angle_beta     63.2692
_cell_angle_gamma    120

_space_group_name_H-M_alt    "P 1"
_space_group_IT_number       1

loop_
  _space_group_symop_operation_xyz
  'x, y, z'

loop_
  _atom_site_type_symbol
  _atom_site_label
  _atom_site_symmetry_multiplicity
  _atom_site_fract_x
  _atom_site_fract_y
  _atom_site_fract_z
  _atom_site_occupancy
  Co  Co1       1.0  0.31700  0.68300  0.04770  1.0000
  Co  Co2       1.0  0.18300  0.81700  0.45200  1.0000
  Co  Co3       1.0  0.81700  0.18300  0.54800  1.0000
  Co  Co4       1.0  0.68300  0.31700  0.95200  1.0000
  Hf  Hf1       1.0  0.25000  0.13900  0.25000  1.0000
  Hf  Hf2       1.0  0.63900  0.75000  0.25000  1.0000
  Hf  Hf3       1.0  0.86100  0.36100  0.25000  1.0000
  Hf  Hf4       1.0  0.13900  0.63900  0.75000  1.0000
  Hf  Hf5       1.0  0.36100  0.25000  0.75000  1.0000
  Hf  Hf6       1.0  0.75000  0.86100  0.75000  1.0000
