data_image0
_chemical_formula_structural       Ti8Zn6
_chemical_formula_sum              "Ti8 Zn6"
_cell_length_a       7.62582
_cell_length_b       7.62527
_cell_length_c       4.39843
_cell_angle_alpha    90
_cell_angle_beta     90
_cell_angle_gamma    60.0057

_space_group_name_H-M_alt    "P 1"
_space_group_IT_number       1

loop_
  _space_group_symop_operation_xyz
  'x, y, z'

loop_
  _atom_site_type_symbol
  _atom_site_label
  _atom_site_symmetry_multiplicity
  _atom_site_fract_x
  _atom_site_fract_y
  _atom_site_fract_z
  _atom_site_occupancy
  Ti  Ti1       1.0  0.57500  0.15200  0.00000  1.0000
  Ti  Ti2       1.0  0.14300  0.28600  0.00000  1.0000
  Ti  Ti3       1.0  0.84500  0.71700  0.00000  1.0000
  Ti  Ti4       1.0  0.00898  0.98800  0.00000  1.0000
  Ti  Ti5       1.0  0.37800  0.08630  0.50000  1.0000
  Ti  Ti6       1.0  0.94300  0.25000  0.50000  1.0000
  Ti  Ti7       1.0  0.10700  0.52100  0.50000  1.0000
  Ti  Ti8       1.0  0.80900  0.95200  0.50000  1.0000
  Zn  Zn1       1.0  0.70900  0.43300  0.00000  1.0000
  Zn  Zn2       1.0  0.29000  0.57200  0.00000  1.0000
  Zn  Zn3       1.0  0.42900  0.85200  0.00000  1.0000
  Zn  Zn4       1.0  0.52300  0.38600  0.50000  1.0000
  Zn  Zn5       1.0  0.66200  0.66600  0.50000  1.0000
  Zn  Zn6       1.0  0.24300  0.80500  0.50000  1.0000
