data_image0
_chemical_formula_structural       Fe4H6
_chemical_formula_sum              "Fe4 H6"
_cell_length_a       4.48711
_cell_length_b       4.48711
_cell_length_c       4.37753
_cell_angle_alpha    120.832
_cell_angle_beta     59.1684
_cell_angle_gamma    120

_space_group_name_H-M_alt    "P 1"
_space_group_IT_number       1

loop_
  _space_group_symop_operation_xyz
  'x, y, z'

loop_
  _atom_site_type_symbol
  _atom_site_label
  _atom_site_symmetry_multiplicity
  _atom_site_fract_x
  _atom_site_fract_y
  _atom_site_fract_z
  _atom_site_occupancy
  Fe  Fe1       1.0  0.62700  0.37300  0.11800  1.0000
  Fe  Fe2       1.0  0.87300  0.12700  0.38200  1.0000
  Fe  Fe3       1.0  0.12700  0.87300  0.61800  1.0000
  Fe  Fe4       1.0  0.37300  0.62700  0.88200  1.0000
  H   H1        1.0  0.97800  0.47800  0.25000  1.0000
  H   H2        1.0  0.52200  0.75000  0.25000  1.0000
  H   H3        1.0  0.25000  0.02180  0.25000  1.0000
  H   H4        1.0  0.75000  0.97800  0.75000  1.0000
  H   H5        1.0  0.47800  0.25000  0.75000  1.0000
  H   H6        1.0  0.02180  0.52200  0.75000  1.0000
