data_image0
_chemical_formula_structural       Co4N6
_chemical_formula_sum              "Co4 N6"
_cell_length_a       4.72267
_cell_length_b       4.72267
_cell_length_c       5.12991
_cell_angle_alpha    117.407
_cell_angle_beta     62.593
_cell_angle_gamma    120

_space_group_name_H-M_alt    "P 1"
_space_group_IT_number       1

loop_
  _space_group_symop_operation_xyz
  'x, y, z'

loop_
  _atom_site_type_symbol
  _atom_site_label
  _atom_site_symmetry_multiplicity
  _atom_site_fract_x
  _atom_site_fract_y
  _atom_site_fract_z
  _atom_site_occupancy
  Co  Co1       1.0  0.64700  0.35300  0.05810  1.0000
  Co  Co2       1.0  0.85300  0.14700  0.44200  1.0000
  Co  Co3       1.0  0.14700  0.85300  0.55800  1.0000
  Co  Co4       1.0  0.35300  0.64700  0.94200  1.0000
  N   N1        1.0  0.25000  0.07180  0.25000  1.0000
  N   N2        1.0  0.57200  0.75000  0.25000  1.0000
  N   N3        1.0  0.92800  0.42800  0.25000  1.0000
  N   N4        1.0  0.07180  0.57200  0.75000  1.0000
  N   N5        1.0  0.42800  0.25000  0.75000  1.0000
  N   N6        1.0  0.75000  0.92800  0.75000  1.0000
