data_image0
_chemical_formula_structural       Be2O8Ti4
_chemical_formula_sum              "Be2 O8 Ti4"
_cell_length_a       5.66796
_cell_length_b       5.66796
_cell_length_c       5.66796
_cell_angle_alpha    119.997
_cell_angle_beta     90.0043
_cell_angle_gamma    119.997

_space_group_name_H-M_alt    "P 1"
_space_group_IT_number       1

loop_
  _space_group_symop_operation_xyz
  'x, y, z'

loop_
  _atom_site_type_symbol
  _atom_site_label
  _atom_site_symmetry_multiplicity
  _atom_site_fract_x
  _atom_site_fract_y
  _atom_site_fract_z
  _atom_site_occupancy
  Be  Be1       1.0  0.00000  0.00000  0.00000  1.0000
  Be  Be2       1.0  0.75000  0.50000  0.25000  1.0000
  O   O1        1.0  0.12000  0.24000  0.36000  1.0000
  O   O2        1.0  0.11000  0.74000  0.37000  1.0000
  O   O3        1.0  0.63000  0.26000  0.37000  1.0000
  O   O4        1.0  0.63000  0.74000  0.37000  1.0000
  O   O5        1.0  0.12000  0.76000  0.88000  1.0000
  O   O6        1.0  0.12000  0.24000  0.88000  1.0000
  O   O7        1.0  0.64000  0.76000  0.88000  1.0000
  O   O8        1.0  0.63000  0.26000  0.89000  1.0000
  Ti  Ti1       1.0  0.37500  0.75000  0.12500  1.0000
  Ti  Ti2       1.0  0.37500  0.75000  0.62500  1.0000
  Ti  Ti3       1.0  0.37500  0.25000  0.62500  1.0000
  Ti  Ti4       1.0  0.87500  0.25000  0.62500  1.0000
