data_image0
_chemical_formula_structural       F2Ho2S2
_chemical_formula_sum              "F2 Ho2 S2"
_cell_length_a       3.73391
_cell_length_b       3.73391
_cell_length_c       6.76522
_cell_angle_alpha    90
_cell_angle_beta     90
_cell_angle_gamma    90

_space_group_name_H-M_alt    "P 1"
_space_group_IT_number       1

loop_
  _space_group_symop_operation_xyz
  'x, y, z'

loop_
  _atom_site_type_symbol
  _atom_site_label
  _atom_site_symmetry_multiplicity
  _atom_site_fract_x
  _atom_site_fract_y
  _atom_site_fract_z
  _atom_site_occupancy
  F   F1        1.0  0.75000  0.25000  0.00000  1.0000
  F   F2        1.0  0.25000  0.75000  0.00000  1.0000
  Ho  Ho1       1.0  0.25000  0.25000  0.22900  1.0000
  Ho  Ho2       1.0  0.75000  0.75000  0.77100  1.0000
  S   S1        1.0  0.75000  0.75000  0.35600  1.0000
  S   S2        1.0  0.25000  0.25000  0.64400  1.0000
