data_image0
_chemical_formula_structural       C10H8K4N10O7W2
_chemical_formula_sum              "C10 H8 K4 N10 O7 W2"
_cell_length_a       8.61521
_cell_length_b       8.68553
_cell_length_c       9.13123
_cell_angle_alpha    80.9586
_cell_angle_beta     64.5472
_cell_angle_gamma    64.9601

_space_group_name_H-M_alt    "P 1"
_space_group_IT_number       1

loop_
  _space_group_symop_operation_xyz
  'x, y, z'

loop_
  _atom_site_type_symbol
  _atom_site_label
  _atom_site_symmetry_multiplicity
  _atom_site_fract_x
  _atom_site_fract_y
  _atom_site_fract_z
  _atom_site_occupancy
  C   C1        1.0  0.94600  0.69200  0.10000  1.0000
  C   C2        1.0  0.28500  0.86800  0.10400  1.0000
  C   C3        1.0  0.65600  0.95700  0.13800  1.0000
  C   C4        1.0  0.80700  0.30600  0.18900  1.0000
  C   C5        1.0  0.95600  0.02270  0.31000  1.0000
  C   C6        1.0  0.04440  0.97700  0.69000  1.0000
  C   C7        1.0  0.19300  0.69400  0.81100  1.0000
  C   C8        1.0  0.34400  0.04300  0.86200  1.0000
  C   C9        1.0  0.71500  0.13200  0.89600  1.0000
  C   C10       1.0  0.05410  0.30800  0.90000  1.0000
  H   H1        1.0  0.91500  0.41700  0.41100  1.0000
  H   H2        1.0  0.78000  0.72200  0.41400  1.0000
  H   H3        1.0  0.37300  0.15000  0.43800  1.0000
  H   H4        1.0  0.02180  0.74600  0.49100  1.0000
  H   H5        1.0  0.97800  0.25400  0.50900  1.0000
  H   H6        1.0  0.62700  0.85000  0.56200  1.0000
  H   H7        1.0  0.22000  0.27800  0.58600  1.0000
  H   H8        1.0  0.08480  0.58300  0.58900  1.0000
  K   K1        1.0  0.32800  0.42400  0.20900  1.0000
  K   K2        1.0  0.42400  0.72600  0.40800  1.0000
  K   K3        1.0  0.57600  0.27400  0.59200  1.0000
  K   K4        1.0  0.67200  0.57600  0.79100  1.0000
  N   N1        1.0  0.38600  0.72700  0.10700  1.0000
  N   N2        1.0  0.96100  0.60100  0.20700  1.0000
  N   N3        1.0  0.65200  0.40400  0.25000  1.0000
  N   N4        1.0  0.52300  0.00100  0.26000  1.0000
  N   N5        1.0  0.88100  0.96100  0.42800  1.0000
  N   N6        1.0  0.11900  0.03870  0.57200  1.0000
  N   N7        1.0  0.47700  0.99900  0.74000  1.0000
  N   N8        1.0  0.34800  0.59600  0.75000  1.0000
  N   N9        1.0  0.03850  0.39900  0.79300  1.0000
  N   N10       1.0  0.61400  0.27300  0.89300  1.0000
  O   O1        1.0  0.00000  0.00000  0.00000  1.0000
  O   O2        1.0  0.17800  0.22300  0.16500  1.0000
  O   O3        1.0  0.12800  0.63800  0.48600  1.0000
  O   O4        1.0  0.33400  0.26100  0.48700  1.0000
  O   O5        1.0  0.66600  0.73900  0.51300  1.0000
  O   O6        1.0  0.87200  0.36200  0.51400  1.0000
  O   O7        1.0  0.82200  0.77700  0.83500  1.0000
  W   W1        1.0  0.09420  0.12100  0.08260  1.0000
  W   W2        1.0  0.90600  0.87900  0.91700  1.0000
