data_image0
_chemical_formula_structural       Mg4O8Sn2
_chemical_formula_sum              "Mg4 O8 Sn2"
_cell_length_a       6.05025
_cell_length_b       6.05025
_cell_length_c       6.05025
_cell_angle_alpha    120
_cell_angle_beta     90
_cell_angle_gamma    120

_space_group_name_H-M_alt    "P 1"
_space_group_IT_number       1

loop_
  _space_group_symop_operation_xyz
  'x, y, z'

loop_
  _atom_site_type_symbol
  _atom_site_label
  _atom_site_symmetry_multiplicity
  _atom_site_fract_x
  _atom_site_fract_y
  _atom_site_fract_z
  _atom_site_occupancy
  Mg  Mg1       1.0  0.50000  0.00000  0.00000  1.0000
  Mg  Mg2       1.0  0.50000  0.00000  0.50000  1.0000
  Mg  Mg3       1.0  0.00000  0.50000  0.50000  1.0000
  Mg  Mg4       1.0  0.50000  0.50000  0.50000  1.0000
  O   O1        1.0  0.74200  0.01690  0.25800  1.0000
  O   O2        1.0  0.27500  0.01690  0.25800  1.0000
  O   O3        1.0  0.74200  0.48300  0.25800  1.0000
  O   O4        1.0  0.25800  0.51700  0.27500  1.0000
  O   O5        1.0  0.74200  0.48300  0.72500  1.0000
  O   O6        1.0  0.25800  0.98300  0.74200  1.0000
  O   O7        1.0  0.72500  0.98300  0.74200  1.0000
  O   O8        1.0  0.25800  0.51700  0.74200  1.0000
  Sn  Sn1       1.0  0.87500  0.75000  0.12500  1.0000
  Sn  Sn2       1.0  0.12500  0.25000  0.87500  1.0000
