data_image0
_chemical_formula_structural       Bi2O2Se
_chemical_formula_sum              "Bi2 O2 Se1"
_cell_length_a       4.09305
_cell_length_b       4.09305
_cell_length_c       6.12671
_cell_angle_alpha    109.514
_cell_angle_beta     109.514
_cell_angle_gamma    90

_space_group_name_H-M_alt    "P 1"
_space_group_IT_number       1

loop_
  _space_group_symop_operation_xyz
  'x, y, z'

loop_
  _atom_site_type_symbol
  _atom_site_label
  _atom_site_symmetry_multiplicity
  _atom_site_fract_x
  _atom_site_fract_y
  _atom_site_fract_z
  _atom_site_occupancy
  Bi  Bi1       1.0  0.68800  0.68800  0.37500  1.0000
  Bi  Bi2       1.0  0.31200  0.31200  0.62500  1.0000
  O   O1        1.0  0.50000  0.00000  0.00000  1.0000
  O   O2        1.0  0.00000  0.50000  0.00000  1.0000
  Se  Se1       1.0  0.00000  0.00000  0.00000  1.0000
