data_image0
_chemical_formula_structural       Hg2Sc2Ti3
_chemical_formula_sum              "Hg2 Sc2 Ti3"
_cell_length_a       7.74961
_cell_length_b       7.74961
_cell_length_c       7.74961
_cell_angle_alpha    35.1767
_cell_angle_beta     35.1767
_cell_angle_gamma    35.1767

_space_group_name_H-M_alt    "P 1"
_space_group_IT_number       1

loop_
  _space_group_symop_operation_xyz
  'x, y, z'

loop_
  _atom_site_type_symbol
  _atom_site_label
  _atom_site_symmetry_multiplicity
  _atom_site_fract_x
  _atom_site_fract_y
  _atom_site_fract_z
  _atom_site_occupancy
  Hg  Hg1       1.0  0.04590  0.04590  0.04590  1.0000
  Hg  Hg2       1.0  0.48900  0.48900  0.48900  1.0000
  Sc  Sc1       1.0  0.19900  0.19900  0.19900  1.0000
  Sc  Sc2       1.0  0.76600  0.76600  0.76600  1.0000
  Ti  Ti1       1.0  0.33300  0.33300  0.33300  1.0000
  Ti  Ti2       1.0  0.62200  0.62200  0.62200  1.0000
  Ti  Ti3       1.0  0.92000  0.92000  0.92000  1.0000
