data_image0
_chemical_formula_structural       B2Hf3Zn2
_chemical_formula_sum              "B2 Hf3 Zn2"
_cell_length_a       7.63738
_cell_length_b       7.63738
_cell_length_c       7.63738
_cell_angle_alpha    32.5647
_cell_angle_beta     32.5647
_cell_angle_gamma    32.5647

_space_group_name_H-M_alt    "P 1"
_space_group_IT_number       1

loop_
  _space_group_symop_operation_xyz
  'x, y, z'

loop_
  _atom_site_type_symbol
  _atom_site_label
  _atom_site_symmetry_multiplicity
  _atom_site_fract_x
  _atom_site_fract_y
  _atom_site_fract_z
  _atom_site_occupancy
  B   B1        1.0  0.50700  0.50700  0.50700  1.0000
  B   B2        1.0  0.99600  0.99600  0.99600  1.0000
  Hf  Hf1       1.0  0.38700  0.38700  0.38700  1.0000
  Hf  Hf2       1.0  0.62700  0.62700  0.62700  1.0000
  Hf  Hf3       1.0  0.86500  0.86500  0.86500  1.0000
  Zn  Zn1       1.0  0.24300  0.24300  0.24300  1.0000
  Zn  Zn2       1.0  0.75000  0.75000  0.75000  1.0000
