data_image0
_chemical_formula_structural       Be3Fe2Ni2
_chemical_formula_sum              "Be3 Fe2 Ni2"
_cell_length_a       6.11057
_cell_length_b       6.11057
_cell_length_c       6.11057
_cell_angle_alpha    34.7249
_cell_angle_beta     34.7249
_cell_angle_gamma    34.7249

_space_group_name_H-M_alt    "P 1"
_space_group_IT_number       1

loop_
  _space_group_symop_operation_xyz
  'x, y, z'

loop_
  _atom_site_type_symbol
  _atom_site_label
  _atom_site_symmetry_multiplicity
  _atom_site_fract_x
  _atom_site_fract_y
  _atom_site_fract_z
  _atom_site_occupancy
  Be  Be1       1.0  0.36900  0.36900  0.36900  1.0000
  Be  Be2       1.0  0.62600  0.62600  0.62600  1.0000
  Be  Be3       1.0  0.88200  0.88200  0.88200  1.0000
  Fe  Fe1       1.0  0.24100  0.24100  0.24100  1.0000
  Fe  Fe2       1.0  0.75800  0.75800  0.75800  1.0000
  Ni  Ni1       1.0  0.00612  0.00612  0.00612  1.0000
  Ni  Ni2       1.0  0.49400  0.49400  0.49400  1.0000
