data_image0
_chemical_formula_structural       B2Ge3Zn2
_chemical_formula_sum              "B2 Ge3 Zn2"
_cell_length_a       9.22154
_cell_length_b       9.22154
_cell_length_c       9.22154
_cell_angle_alpha    23.0252
_cell_angle_beta     23.0252
_cell_angle_gamma    23.0252

_space_group_name_H-M_alt    "P 1"
_space_group_IT_number       1

loop_
  _space_group_symop_operation_xyz
  'x, y, z'

loop_
  _atom_site_type_symbol
  _atom_site_label
  _atom_site_symmetry_multiplicity
  _atom_site_fract_x
  _atom_site_fract_y
  _atom_site_fract_z
  _atom_site_occupancy
  B   B1        1.0  0.47400  0.47400  0.47400  1.0000
  B   B2        1.0  0.97900  0.97900  0.97900  1.0000
  Ge  Ge1       1.0  0.39500  0.39500  0.39500  1.0000
  Ge  Ge2       1.0  0.65600  0.65600  0.65600  1.0000
  Ge  Ge3       1.0  0.90200  0.90200  0.90200  1.0000
  Zn  Zn1       1.0  0.18000  0.18000  0.18000  1.0000
  Zn  Zn2       1.0  0.78900  0.78900  0.78900  1.0000
