data_image0
_chemical_formula_structural       B2Cd2Si3
_chemical_formula_sum              "B2 Cd2 Si3"
_cell_length_a       8.74478
_cell_length_b       8.74478
_cell_length_c       8.74478
_cell_angle_alpha    25.6375
_cell_angle_beta     25.6375
_cell_angle_gamma    25.6375

_space_group_name_H-M_alt    "P 1"
_space_group_IT_number       1

loop_
  _space_group_symop_operation_xyz
  'x, y, z'

loop_
  _atom_site_type_symbol
  _atom_site_label
  _atom_site_symmetry_multiplicity
  _atom_site_fract_x
  _atom_site_fract_y
  _atom_site_fract_z
  _atom_site_occupancy
  B   B1        1.0  0.00681  0.00681  0.00681  1.0000
  B   B2        1.0  0.45100  0.45100  0.45100  1.0000
  Cd  Cd1       1.0  0.19200  0.19200  0.19200  1.0000
  Cd  Cd2       1.0  0.78500  0.78500  0.78500  1.0000
  Si  Si1       1.0  0.37200  0.37200  0.37200  1.0000
  Si  Si2       1.0  0.64300  0.64300  0.64300  1.0000
  Si  Si3       1.0  0.92500  0.92500  0.92500  1.0000
