data_image0
_chemical_formula_structural       Cd2Ga2Ge3
_chemical_formula_sum              "Cd2 Ga2 Ge3"
_cell_length_a       8.14103
_cell_length_b       8.14103
_cell_length_c       8.14103
_cell_angle_alpha    34.0931
_cell_angle_beta     34.0931
_cell_angle_gamma    34.0931

_space_group_name_H-M_alt    "P 1"
_space_group_IT_number       1

loop_
  _space_group_symop_operation_xyz
  'x, y, z'

loop_
  _atom_site_type_symbol
  _atom_site_label
  _atom_site_symmetry_multiplicity
  _atom_site_fract_x
  _atom_site_fract_y
  _atom_site_fract_z
  _atom_site_occupancy
  Cd  Cd1       1.0  0.24000  0.24000  0.24000  1.0000
  Cd  Cd2       1.0  0.75600  0.75600  0.75600  1.0000
  Ga  Ga1       1.0  0.00636  0.00636  0.00636  1.0000
  Ga  Ga2       1.0  0.49500  0.49500  0.49500  1.0000
  Ge  Ge1       1.0  0.37400  0.37400  0.37400  1.0000
  Ge  Ge2       1.0  0.62700  0.62700  0.62700  1.0000
  Ge  Ge3       1.0  0.87700  0.87700  0.87700  1.0000
