data_image0
_chemical_formula_structural       C4H18N8O10P2
_chemical_formula_sum              "C4 H18 N8 O10 P2"
_cell_length_a       8.1358
_cell_length_b       6.50546
_cell_length_c       8.08307
_cell_angle_alpha    74.385
_cell_angle_beta     63.6363
_cell_angle_gamma    82.0286

_space_group_name_H-M_alt    "P 1"
_space_group_IT_number       1

loop_
  _space_group_symop_operation_xyz
  'x, y, z'

loop_
  _atom_site_type_symbol
  _atom_site_label
  _atom_site_symmetry_multiplicity
  _atom_site_fract_x
  _atom_site_fract_y
  _atom_site_fract_z
  _atom_site_occupancy
  C   C1        1.0  0.41900  0.34900  0.22000  1.0000
  C   C2        1.0  0.58500  0.58200  0.28500  1.0000
  C   C3        1.0  0.41500  0.41800  0.71500  1.0000
  C   C4        1.0  0.58100  0.65100  0.78000  1.0000
  H   H1        1.0  0.82800  0.00666  0.03000  1.0000
  H   H2        1.0  0.32900  0.12500  0.14700  1.0000
  H   H3        1.0  0.17100  0.44500  0.22300  1.0000
  H   H4        1.0  0.49200  0.02840  0.23300  1.0000
  H   H5        1.0  0.30000  0.64000  0.23300  1.0000
  H   H6        1.0  0.66300  0.27500  0.23600  1.0000
  H   H7        1.0  0.81500  0.44400  0.32800  1.0000
  H   H8        1.0  0.76500  0.71100  0.34000  1.0000
  H   H9        1.0  0.98600  0.80900  0.49900  1.0000
  H   H10       1.0  0.01400  0.19100  0.50100  1.0000
  H   H11       1.0  0.23500  0.28900  0.66000  1.0000
  H   H12       1.0  0.18500  0.55600  0.67200  1.0000
  H   H13       1.0  0.33700  0.72500  0.76400  1.0000
  H   H14       1.0  0.70000  0.36000  0.76700  1.0000
  H   H15       1.0  0.50800  0.97200  0.76700  1.0000
  H   H16       1.0  0.82900  0.55500  0.77700  1.0000
  H   H17       1.0  0.67100  0.87500  0.85300  1.0000
  H   H18       1.0  0.17200  0.99300  0.97000  1.0000
  N   N1        1.0  0.41800  0.15700  0.19400  1.0000
  N   N2        1.0  0.29100  0.49700  0.20800  1.0000
  N   N3        1.0  0.55800  0.39100  0.25600  1.0000
  N   N4        1.0  0.73500  0.58000  0.31500  1.0000
  N   N5        1.0  0.26500  0.42000  0.68500  1.0000
  N   N6        1.0  0.44200  0.60900  0.74400  1.0000
  N   N7        1.0  0.70900  0.50300  0.79200  1.0000
  N   N8        1.0  0.58200  0.84300  0.80600  1.0000
  O   O1        1.0  0.16700  0.05550  0.07940  1.0000
  O   O2        1.0  0.82200  0.08700  0.18000  1.0000
  O   O3        1.0  0.47700  0.73900  0.28400  1.0000
  O   O4        1.0  0.97200  0.23200  0.34200  1.0000
  O   O5        1.0  0.94600  0.83000  0.38900  1.0000
  O   O6        1.0  0.05420  0.17000  0.61100  1.0000
  O   O7        1.0  0.02830  0.76800  0.65800  1.0000
  O   O8        1.0  0.52300  0.26100  0.71600  1.0000
  O   O9        1.0  0.17800  0.91300  0.82000  1.0000
  O   O10       1.0  0.83300  0.94500  0.92100  1.0000
  P   P1        1.0  0.97200  0.05650  0.25000  1.0000
  P   P2        1.0  0.02830  0.94400  0.75000  1.0000
