data_image0
_chemical_formula_structural       Cu2Sn2Zr3
_chemical_formula_sum              "Cu2 Sn2 Zr3"
_cell_length_a       8.31452
_cell_length_b       8.31452
_cell_length_c       8.31452
_cell_angle_alpha    32.9982
_cell_angle_beta     32.9982
_cell_angle_gamma    32.9982

_space_group_name_H-M_alt    "P 1"
_space_group_IT_number       1

loop_
  _space_group_symop_operation_xyz
  'x, y, z'

loop_
  _atom_site_type_symbol
  _atom_site_label
  _atom_site_symmetry_multiplicity
  _atom_site_fract_x
  _atom_site_fract_y
  _atom_site_fract_z
  _atom_site_occupancy
  Cu  Cu1       1.0  0.24500  0.24500  0.24500  1.0000
  Cu  Cu2       1.0  0.75500  0.75500  0.75500  1.0000
  Sn  Sn1       1.0  0.00533  0.00533  0.00533  1.0000
  Sn  Sn2       1.0  0.49600  0.49600  0.49600  1.0000
  Zr  Zr1       1.0  0.37700  0.37700  0.37700  1.0000
  Zr  Zr2       1.0  0.62300  0.62300  0.62300  1.0000
  Zr  Zr3       1.0  0.87500  0.87500  0.87500  1.0000
