data_image0
_chemical_formula_structural       Ag2Sn3Zr2
_chemical_formula_sum              "Ag2 Sn3 Zr2"
_cell_length_a       8.8086
_cell_length_b       8.8086
_cell_length_c       8.8086
_cell_angle_alpha    31.3982
_cell_angle_beta     31.3982
_cell_angle_gamma    31.3982

_space_group_name_H-M_alt    "P 1"
_space_group_IT_number       1

loop_
  _space_group_symop_operation_xyz
  'x, y, z'

loop_
  _atom_site_type_symbol
  _atom_site_label
  _atom_site_symmetry_multiplicity
  _atom_site_fract_x
  _atom_site_fract_y
  _atom_site_fract_z
  _atom_site_occupancy
  Ag  Ag1       1.0  0.00666  0.00666  0.00666  1.0000
  Ag  Ag2       1.0  0.49800  0.49800  0.49800  1.0000
  Sn  Sn1       1.0  0.38300  0.38300  0.38300  1.0000
  Sn  Sn2       1.0  0.62600  0.62600  0.62600  1.0000
  Sn  Sn3       1.0  0.86200  0.86200  0.86200  1.0000
  Zr  Zr1       1.0  0.25000  0.25000  0.25000  1.0000
  Zr  Zr2       1.0  0.75000  0.75000  0.75000  1.0000
