data_image0
_chemical_formula_structural       Pt2Ti3V2
_chemical_formula_sum              "Pt2 Ti3 V2"
_cell_length_a       7.3785
_cell_length_b       7.3785
_cell_length_c       7.3785
_cell_angle_alpha    34.0641
_cell_angle_beta     34.0641
_cell_angle_gamma    34.0641

_space_group_name_H-M_alt    "P 1"
_space_group_IT_number       1

loop_
  _space_group_symop_operation_xyz
  'x, y, z'

loop_
  _atom_site_type_symbol
  _atom_site_label
  _atom_site_symmetry_multiplicity
  _atom_site_fract_x
  _atom_site_fract_y
  _atom_site_fract_z
  _atom_site_occupancy
  Pt  Pt1       1.0  0.00216  0.00216  0.00216  1.0000
  Pt  Pt2       1.0  0.49600  0.49600  0.49600  1.0000
  Ti  Ti1       1.0  0.37600  0.37600  0.37600  1.0000
  Ti  Ti2       1.0  0.62700  0.62700  0.62700  1.0000
  Ti  Ti3       1.0  0.87300  0.87300  0.87300  1.0000
  V   V1        1.0  0.24600  0.24600  0.24600  1.0000
  V   V2        1.0  0.75500  0.75500  0.75500  1.0000
