data_image0
_chemical_formula_structural       As2Pd2Si3
_chemical_formula_sum              "As2 Pd2 Si3"
_cell_length_a       8.36214
_cell_length_b       8.36214
_cell_length_c       8.36214
_cell_angle_alpha    29.2645
_cell_angle_beta     29.2645
_cell_angle_gamma    29.2645

_space_group_name_H-M_alt    "P 1"
_space_group_IT_number       1

loop_
  _space_group_symop_operation_xyz
  'x, y, z'

loop_
  _atom_site_type_symbol
  _atom_site_label
  _atom_site_symmetry_multiplicity
  _atom_site_fract_x
  _atom_site_fract_y
  _atom_site_fract_z
  _atom_site_occupancy
  As  As1       1.0  0.19600  0.19600  0.19600  1.0000
  As  As2       1.0  0.77100  0.77100  0.77100  1.0000
  Pd  Pd1       1.0  0.00000  0.00000  0.00000  1.0000
  Pd  Pd2       1.0  0.47500  0.47500  0.47500  1.0000
  Si  Si1       1.0  0.37300  0.37300  0.37300  1.0000
  Si  Si2       1.0  0.66000  0.66000  0.66000  1.0000
  Si  Si3       1.0  0.90100  0.90100  0.90100  1.0000
