data_image0
_chemical_formula_structural       Cu2Pb3Zr2
_chemical_formula_sum              "Cu2 Pb3 Zr2"
_cell_length_a       9.23333
_cell_length_b       9.23333
_cell_length_c       9.23333
_cell_angle_alpha    29.1237
_cell_angle_beta     29.1237
_cell_angle_gamma    29.1237

_space_group_name_H-M_alt    "P 1"
_space_group_IT_number       1

loop_
  _space_group_symop_operation_xyz
  'x, y, z'

loop_
  _atom_site_type_symbol
  _atom_site_label
  _atom_site_symmetry_multiplicity
  _atom_site_fract_x
  _atom_site_fract_y
  _atom_site_fract_z
  _atom_site_occupancy
  Cu  Cu1       1.0  0.00920  0.00920  0.00920  1.0000
  Cu  Cu2       1.0  0.49800  0.49800  0.49800  1.0000
  Pb  Pb1       1.0  0.38300  0.38300  0.38300  1.0000
  Pb  Pb2       1.0  0.62900  0.62900  0.62900  1.0000
  Pb  Pb3       1.0  0.85800  0.85800  0.85800  1.0000
  Zr  Zr1       1.0  0.24700  0.24700  0.24700  1.0000
  Zr  Zr2       1.0  0.75100  0.75100  0.75100  1.0000
