data_image0
_chemical_formula_structural       Ge3Pt2Sb2
_chemical_formula_sum              "Ge3 Pt2 Sb2"
_cell_length_a       8.8739
_cell_length_b       8.8739
_cell_length_c       8.8739
_cell_angle_alpha    29.3003
_cell_angle_beta     29.3003
_cell_angle_gamma    29.3003

_space_group_name_H-M_alt    "P 1"
_space_group_IT_number       1

loop_
  _space_group_symop_operation_xyz
  'x, y, z'

loop_
  _atom_site_type_symbol
  _atom_site_label
  _atom_site_symmetry_multiplicity
  _atom_site_fract_x
  _atom_site_fract_y
  _atom_site_fract_z
  _atom_site_occupancy
  Ge  Ge1       1.0  0.37100  0.37100  0.37100  1.0000
  Ge  Ge2       1.0  0.65200  0.65200  0.65200  1.0000
  Ge  Ge3       1.0  0.91000  0.91000  0.91000  1.0000
  Pt  Pt1       1.0  0.00516  0.00516  0.00516  1.0000
  Pt  Pt2       1.0  0.47500  0.47500  0.47500  1.0000
  Sb  Sb1       1.0  0.19100  0.19100  0.19100  1.0000
  Sb  Sb2       1.0  0.77100  0.77100  0.77100  1.0000
