data_image0
_chemical_formula_structural       C8H16O16Zn2
_chemical_formula_sum              "C8 H16 O16 Zn2"
_cell_length_a       6.46452
_cell_length_b       7.94651
_cell_length_c       7.94651
_cell_angle_alpha    113.442
_cell_angle_beta     94.9169
_cell_angle_gamma    94.9169

_space_group_name_H-M_alt    "P 1"
_space_group_IT_number       1

loop_
  _space_group_symop_operation_xyz
  'x, y, z'

loop_
  _atom_site_type_symbol
  _atom_site_label
  _atom_site_symmetry_multiplicity
  _atom_site_fract_x
  _atom_site_fract_y
  _atom_site_fract_z
  _atom_site_occupancy
  C   C1        1.0  0.50400  0.90000  0.05210  1.0000
  C   C2        1.0  0.99600  0.94800  0.10000  1.0000
  C   C3        1.0  0.00408  0.13400  0.10000  1.0000
  C   C4        1.0  0.50400  0.10000  0.13400  1.0000
  C   C5        1.0  0.49600  0.90000  0.86600  1.0000
  C   C6        1.0  0.99600  0.86600  0.90000  1.0000
  C   C7        1.0  0.00357  0.05210  0.90000  1.0000
  C   C8        1.0  0.49600  0.10000  0.94800  1.0000
  H   H1        1.0  0.88200  0.44500  0.14700  1.0000
  H   H2        1.0  0.89300  0.65100  0.15600  1.0000
  H   H3        1.0  0.25000  0.48500  0.24200  1.0000
  H   H4        1.0  0.45400  0.41500  0.29100  1.0000
  H   H5        1.0  0.60700  0.84400  0.34900  1.0000
  H   H6        1.0  0.95400  0.29100  0.41500  1.0000
  H   H7        1.0  0.38200  0.14700  0.44500  1.0000
  H   H8        1.0  0.75000  0.24200  0.48500  1.0000
  H   H9        1.0  0.25000  0.75800  0.51500  1.0000
  H   H10       1.0  0.61800  0.85300  0.55500  1.0000
  H   H11       1.0  0.04550  0.70900  0.58500  1.0000
  H   H12       1.0  0.39300  0.15500  0.65100  1.0000
  H   H13       1.0  0.54600  0.58500  0.70900  1.0000
  H   H14       1.0  0.75000  0.51500  0.75800  1.0000
  H   H15       1.0  0.10700  0.34900  0.84400  1.0000
  H   H16       1.0  0.11800  0.55500  0.85300  1.0000
  O   O1        1.0  0.81000  0.52700  0.10100  1.0000
  O   O2        1.0  0.50800  0.78400  0.12300  1.0000
  O   O3        1.0  0.99200  0.87700  0.21600  1.0000
  O   O4        1.0  0.00767  0.29800  0.21900  1.0000
  O   O5        1.0  0.40200  0.51400  0.25700  1.0000
  O   O6        1.0  0.50800  0.21900  0.29800  1.0000
  O   O7        1.0  0.69000  0.89900  0.47300  1.0000
  O   O8        1.0  0.09760  0.74300  0.48600  1.0000
  O   O9        1.0  0.90200  0.25700  0.51400  1.0000
  O   O10       1.0  0.31000  0.10100  0.52700  1.0000
  O   O11       1.0  0.49200  0.78100  0.70200  1.0000
  O   O12       1.0  0.59800  0.48600  0.74300  1.0000
  O   O13       1.0  0.99200  0.70200  0.78100  1.0000
  O   O14       1.0  0.00801  0.12300  0.78400  1.0000
  O   O15       1.0  0.49200  0.21600  0.87700  1.0000
  O   O16       1.0  0.19000  0.47300  0.89900  1.0000
  Zn  Zn1       1.0  0.50000  0.50000  0.00000  1.0000
  Zn  Zn2       1.0  0.00000  0.00000  0.50000  1.0000
