data_image0
_chemical_formula_structural       Ni2Sn3Ta2
_chemical_formula_sum              "Ni2 Sn3 Ta2"
_cell_length_a       8.43117
_cell_length_b       8.43117
_cell_length_c       8.43117
_cell_angle_alpha    30.5698
_cell_angle_beta     30.5698
_cell_angle_gamma    30.5698

_space_group_name_H-M_alt    "P 1"
_space_group_IT_number       1

loop_
  _space_group_symop_operation_xyz
  'x, y, z'

loop_
  _atom_site_type_symbol
  _atom_site_label
  _atom_site_symmetry_multiplicity
  _atom_site_fract_x
  _atom_site_fract_y
  _atom_site_fract_z
  _atom_site_occupancy
  Ni  Ni1       1.0  0.50300  0.50300  0.50300  1.0000
  Ni  Ni2       1.0  0.99800  0.99800  0.99800  1.0000
  Sn  Sn1       1.0  0.38400  0.38400  0.38400  1.0000
  Sn  Sn2       1.0  0.63000  0.63000  0.63000  1.0000
  Sn  Sn3       1.0  0.86200  0.86200  0.86200  1.0000
  Ta  Ta1       1.0  0.24700  0.24700  0.24700  1.0000
  Ta  Ta2       1.0  0.75100  0.75100  0.75100  1.0000
