data_image0
_chemical_formula_structural       Co2Mo2Zr3
_chemical_formula_sum              "Co2 Mo2 Zr3"
_cell_length_a       7.70315
_cell_length_b       7.70315
_cell_length_c       7.70315
_cell_angle_alpha    34.0474
_cell_angle_beta     34.0474
_cell_angle_gamma    34.0474

_space_group_name_H-M_alt    "P 1"
_space_group_IT_number       1

loop_
  _space_group_symop_operation_xyz
  'x, y, z'

loop_
  _atom_site_type_symbol
  _atom_site_label
  _atom_site_symmetry_multiplicity
  _atom_site_fract_x
  _atom_site_fract_y
  _atom_site_fract_z
  _atom_site_occupancy
  Co  Co1       1.0  0.25000  0.25000  0.25000  1.0000
  Co  Co2       1.0  0.75200  0.75200  0.75200  1.0000
  Mo  Mo1       1.0  0.00484  0.00484  0.00484  1.0000
  Mo  Mo2       1.0  0.49700  0.49700  0.49700  1.0000
  Zr  Zr1       1.0  0.37800  0.37800  0.37800  1.0000
  Zr  Zr2       1.0  0.62400  0.62400  0.62400  1.0000
  Zr  Zr3       1.0  0.87000  0.87000  0.87000  1.0000
