data_image0
_chemical_formula_structural       Fe2Hf3Re2
_chemical_formula_sum              "Fe2 Hf3 Re2"
_cell_length_a       7.63457
_cell_length_b       7.63457
_cell_length_c       7.63457
_cell_angle_alpha    33.8295
_cell_angle_beta     33.8295
_cell_angle_gamma    33.8295

_space_group_name_H-M_alt    "P 1"
_space_group_IT_number       1

loop_
  _space_group_symop_operation_xyz
  'x, y, z'

loop_
  _atom_site_type_symbol
  _atom_site_label
  _atom_site_symmetry_multiplicity
  _atom_site_fract_x
  _atom_site_fract_y
  _atom_site_fract_z
  _atom_site_occupancy
  Fe  Fe1       1.0  0.24800  0.24800  0.24800  1.0000
  Fe  Fe2       1.0  0.75500  0.75500  0.75500  1.0000
  Hf  Hf1       1.0  0.37700  0.37700  0.37700  1.0000
  Hf  Hf2       1.0  0.62400  0.62400  0.62400  1.0000
  Hf  Hf3       1.0  0.87200  0.87200  0.87200  1.0000
  Re  Re1       1.0  0.00261  0.00261  0.00261  1.0000
  Re  Re2       1.0  0.49700  0.49700  0.49700  1.0000
