data_image0
_chemical_formula_structural       Mn2Ru2Ti3
_chemical_formula_sum              "Mn2 Ru2 Ti3"
_cell_length_a       7.2656
_cell_length_b       7.2656
_cell_length_c       7.2656
_cell_angle_alpha    33.8067
_cell_angle_beta     33.8067
_cell_angle_gamma    33.8067

_space_group_name_H-M_alt    "P 1"
_space_group_IT_number       1

loop_
  _space_group_symop_operation_xyz
  'x, y, z'

loop_
  _atom_site_type_symbol
  _atom_site_label
  _atom_site_symmetry_multiplicity
  _atom_site_fract_x
  _atom_site_fract_y
  _atom_site_fract_z
  _atom_site_occupancy
  Mn  Mn1       1.0  0.24800  0.24800  0.24800  1.0000
  Mn  Mn2       1.0  0.75400  0.75400  0.75400  1.0000
  Ru  Ru1       1.0  0.00194  0.00194  0.00194  1.0000
  Ru  Ru2       1.0  0.49800  0.49800  0.49800  1.0000
  Ti  Ti1       1.0  0.37700  0.37700  0.37700  1.0000
  Ti  Ti2       1.0  0.62300  0.62300  0.62300  1.0000
  Ti  Ti3       1.0  0.87300  0.87300  0.87300  1.0000
