data_image0
_chemical_formula_structural       Ba2C8H12O20
_chemical_formula_sum              "Ba2 C8 H12 O20"
_cell_length_a       5.2783
_cell_length_b       7.55525
_cell_length_c       11.4217
_cell_angle_alpha    94.1536
_cell_angle_beta     103.36
_cell_angle_gamma    110.445

_space_group_name_H-M_alt    "P 1"
_space_group_IT_number       1

loop_
  _space_group_symop_operation_xyz
  'x, y, z'

loop_
  _atom_site_type_symbol
  _atom_site_label
  _atom_site_symmetry_multiplicity
  _atom_site_fract_x
  _atom_site_fract_y
  _atom_site_fract_z
  _atom_site_occupancy
  Ba  Ba1       1.0  0.09330  0.25000  0.25000  1.0000
  Ba  Ba2       1.0  0.90700  0.75000  0.75000  1.0000
  C   C1        1.0  0.43000  0.06710  0.01780  1.0000
  C   C2        1.0  0.96800  0.57200  0.03970  1.0000
  C   C3        1.0  0.85700  0.92800  0.46000  1.0000
  C   C4        1.0  0.84500  0.43300  0.48200  1.0000
  C   C5        1.0  0.15500  0.56700  0.51800  1.0000
  C   C6        1.0  0.14300  0.07160  0.54000  1.0000
  C   C7        1.0  0.03180  0.42800  0.96000  1.0000
  C   C8        1.0  0.57000  0.93300  0.98200  1.0000
  H   H1        1.0  0.86000  0.82700  0.04530  1.0000
  H   H2        1.0  0.64700  0.56700  0.18600  1.0000
  H   H3        1.0  0.09570  0.78000  0.24800  1.0000
  H   H4        1.0  0.56800  0.72000  0.25200  1.0000
  H   H5        1.0  0.39400  0.93300  0.31400  1.0000
  H   H6        1.0  0.48800  0.67300  0.45500  1.0000
  H   H7        1.0  0.51200  0.32700  0.54500  1.0000
  H   H8        1.0  0.60600  0.06690  0.68600  1.0000
  H   H9        1.0  0.43200  0.28000  0.74800  1.0000
  H   H10       1.0  0.90400  0.22000  0.75200  1.0000
  H   H11       1.0  0.35300  0.43300  0.81400  1.0000
  H   H12       1.0  0.14000  0.17300  0.95500  1.0000
  O   O1        1.0  0.01870  0.27400  0.00253  1.0000
  O   O2        1.0  0.75300  0.91700  0.07560  1.0000
  O   O3        1.0  0.49100  0.14800  0.12400  1.0000
  O   O4        1.0  0.91100  0.53200  0.13700  1.0000
  O   O5        1.0  0.48900  0.58700  0.20900  1.0000
  O   O6        1.0  0.19300  0.91300  0.29100  1.0000
  O   O7        1.0  0.74200  0.96800  0.36300  1.0000
  O   O8        1.0  0.71900  0.35200  0.37600  1.0000
  O   O9        1.0  0.26000  0.58300  0.42400  1.0000
  O   O10       1.0  0.24200  0.22600  0.49700  1.0000
  O   O11       1.0  0.75800  0.77400  0.50300  1.0000
  O   O12       1.0  0.74000  0.41700  0.57600  1.0000
  O   O13       1.0  0.28100  0.64800  0.62400  1.0000
  O   O14       1.0  0.25800  0.03150  0.63700  1.0000
  O   O15       1.0  0.80700  0.08690  0.70900  1.0000
  O   O16       1.0  0.51100  0.41300  0.79100  1.0000
  O   O17       1.0  0.08910  0.46800  0.86300  1.0000
  O   O18       1.0  0.50900  0.85200  0.87600  1.0000
  O   O19       1.0  0.24700  0.08270  0.92400  1.0000
  O   O20       1.0  0.98100  0.72600  0.99700  1.0000
