data_image0
_chemical_formula_structural       Fe2Mn2Ti3
_chemical_formula_sum              "Fe2 Mn2 Ti3"
_cell_length_a       7.03784
_cell_length_b       7.03784
_cell_length_c       7.03784
_cell_angle_alpha    34.0544
_cell_angle_beta     34.0544
_cell_angle_gamma    34.0544

_space_group_name_H-M_alt    "P 1"
_space_group_IT_number       1

loop_
  _space_group_symop_operation_xyz
  'x, y, z'

loop_
  _atom_site_type_symbol
  _atom_site_label
  _atom_site_symmetry_multiplicity
  _atom_site_fract_x
  _atom_site_fract_y
  _atom_site_fract_z
  _atom_site_occupancy
  Fe  Fe1       1.0  0.00200  0.00200  0.00200  1.0000
  Fe  Fe2       1.0  0.49900  0.49900  0.49900  1.0000
  Mn  Mn1       1.0  0.24600  0.24600  0.24600  1.0000
  Mn  Mn2       1.0  0.75300  0.75300  0.75300  1.0000
  Ti  Ti1       1.0  0.37900  0.37900  0.37900  1.0000
  Ti  Ti2       1.0  0.62500  0.62500  0.62500  1.0000
  Ti  Ti3       1.0  0.87100  0.87100  0.87100  1.0000
