data_image0
_chemical_formula_structural       C10H18N2O10Rh2
_chemical_formula_sum              "C10 H18 N2 O10 Rh2"
_cell_length_a       6.40579
_cell_length_b       6.94275
_cell_length_c       9.51901
_cell_angle_alpha    96.7318
_cell_angle_beta     97.3962
_cell_angle_gamma    112.415

_space_group_name_H-M_alt    "P 1"
_space_group_IT_number       1

loop_
  _space_group_symop_operation_xyz
  'x, y, z'

loop_
  _atom_site_type_symbol
  _atom_site_label
  _atom_site_symmetry_multiplicity
  _atom_site_fract_x
  _atom_site_fract_y
  _atom_site_fract_z
  _atom_site_occupancy
  C   C1        1.0  0.83700  0.28900  0.04300  1.0000
  C   C2        1.0  0.67500  0.73900  0.10900  1.0000
  C   C3        1.0  0.54200  0.18600  0.35600  1.0000
  C   C4        1.0  0.37900  0.68100  0.38800  1.0000
  C   C5        1.0  0.90500  0.22500  0.49800  1.0000
  C   C6        1.0  0.09480  0.77500  0.50200  1.0000
  C   C7        1.0  0.62100  0.31900  0.61200  1.0000
  C   C8        1.0  0.45800  0.81400  0.64400  1.0000
  C   C9        1.0  0.32500  0.26100  0.89100  1.0000
  C   C10       1.0  0.16300  0.71100  0.95700  1.0000
  H   H1        1.0  0.76900  0.41200  0.06020  1.0000
  H   H2        1.0  0.53700  0.62600  0.15200  1.0000
  H   H3        1.0  0.60700  0.12800  0.26500  1.0000
  H   H4        1.0  0.32400  0.74700  0.29800  1.0000
  H   H5        1.0  0.29600  0.50800  0.36000  1.0000
  H   H6        1.0  0.93600  0.17600  0.39200  1.0000
  H   H7        1.0  0.56600  0.73000  0.40700  1.0000
  H   H8        1.0  0.09510  0.89200  0.43400  1.0000
  H   H9        1.0  0.95600  0.62300  0.45000  1.0000
  H   H10       1.0  0.04440  0.37700  0.55000  1.0000
  H   H11       1.0  0.90500  0.10800  0.56600  1.0000
  H   H12       1.0  0.43400  0.27000  0.59300  1.0000
  H   H13       1.0  0.06420  0.82400  0.60800  1.0000
  H   H14       1.0  0.70400  0.49200  0.64000  1.0000
  H   H15       1.0  0.67600  0.25300  0.70200  1.0000
  H   H16       1.0  0.39300  0.87200  0.73500  1.0000
  H   H17       1.0  0.46300  0.37400  0.84800  1.0000
  H   H18       1.0  0.23100  0.58800  0.94000  1.0000
  N   N1        1.0  0.68500  0.24300  0.48300  1.0000
  N   N2        1.0  0.31500  0.75700  0.51700  1.0000
  O   O1        1.0  0.36500  0.27000  0.02720  1.0000
  O   O2        1.0  0.24300  0.83700  0.07800  1.0000
  O   O3        1.0  0.98300  0.28900  0.14700  1.0000
  O   O4        1.0  0.85600  0.86000  0.19900  1.0000
  O   O5        1.0  0.34700  0.19300  0.33900  1.0000
  O   O6        1.0  0.65300  0.80700  0.66100  1.0000
  O   O7        1.0  0.14400  0.14000  0.80100  1.0000
  O   O8        1.0  0.01650  0.71100  0.85300  1.0000
  O   O9        1.0  0.75700  0.16300  0.92200  1.0000
  O   O10       1.0  0.63500  0.73000  0.97300  1.0000
  Rh  Rh1       1.0  0.12000  0.06710  0.11900  1.0000
  Rh  Rh2       1.0  0.88000  0.93300  0.88100  1.0000
