data_image0
_chemical_formula_structural       C8H24O6P4
_chemical_formula_sum              "C8 H24 O6 P4"
_cell_length_a       5.73058
_cell_length_b       5.73058
_cell_length_c       12.2141
_cell_angle_alpha    102.954
_cell_angle_beta     102.954
_cell_angle_gamma    93.3974

_space_group_name_H-M_alt    "P 1"
_space_group_IT_number       1

loop_
  _space_group_symop_operation_xyz
  'x, y, z'

loop_
  _atom_site_type_symbol
  _atom_site_label
  _atom_site_symmetry_multiplicity
  _atom_site_fract_x
  _atom_site_fract_y
  _atom_site_fract_z
  _atom_site_occupancy
  C   C1        1.0  0.70500  0.29700  0.03590  1.0000
  C   C2        1.0  0.17700  0.33400  0.18500  1.0000
  C   C3        1.0  0.66600  0.82300  0.31500  1.0000
  C   C4        1.0  0.70300  0.29500  0.46400  1.0000
  C   C5        1.0  0.29700  0.70500  0.53600  1.0000
  C   C6        1.0  0.33400  0.17700  0.68500  1.0000
  C   C7        1.0  0.82300  0.66600  0.81500  1.0000
  C   C8        1.0  0.29500  0.70300  0.96400  1.0000
  H   H1        1.0  0.51700  0.21800  0.01120  1.0000
  H   H2        1.0  0.21800  0.73800  0.04030  1.0000
  H   H3        1.0  0.72000  0.49200  0.07120  1.0000
  H   H4        1.0  0.25100  0.31700  0.10800  1.0000
  H   H5        1.0  0.15800  0.52400  0.22000  1.0000
  H   H6        1.0  0.73700  0.70700  0.24900  1.0000
  H   H7        1.0  0.29300  0.26300  0.25100  1.0000
  H   H8        1.0  0.47600  0.84200  0.28000  1.0000
  H   H9        1.0  0.68300  0.74900  0.39200  1.0000
  H   H10       1.0  0.50800  0.28000  0.42900  1.0000
  H   H11       1.0  0.26200  0.78200  0.46000  1.0000
  H   H12       1.0  0.78200  0.48300  0.48900  1.0000
  H   H13       1.0  0.21800  0.51700  0.51100  1.0000
  H   H14       1.0  0.73800  0.21800  0.54000  1.0000
  H   H15       1.0  0.49200  0.72000  0.57100  1.0000
  H   H16       1.0  0.31700  0.25100  0.60800  1.0000
  H   H17       1.0  0.52400  0.15800  0.72000  1.0000
  H   H18       1.0  0.70700  0.73700  0.74900  1.0000
  H   H19       1.0  0.26300  0.29300  0.75100  1.0000
  H   H20       1.0  0.84200  0.47600  0.78000  1.0000
  H   H21       1.0  0.74900  0.68300  0.89200  1.0000
  H   H22       1.0  0.28000  0.50800  0.92900  1.0000
  H   H23       1.0  0.78200  0.26200  0.96000  1.0000
  H   H24       1.0  0.48300  0.78200  0.98900  1.0000
  O   O1        1.0  0.88800  0.89400  0.09930  1.0000
  O   O2        1.0  0.76700  0.23300  0.25000  1.0000
  O   O3        1.0  0.10600  0.11200  0.40100  1.0000
  O   O4        1.0  0.89400  0.88800  0.59900  1.0000
  O   O5        1.0  0.23300  0.76700  0.75000  1.0000
  O   O6        1.0  0.11200  0.10600  0.90100  1.0000
  P   P1        1.0  0.88600  0.16100  0.13800  1.0000
  P   P2        1.0  0.83900  0.11400  0.36200  1.0000
  P   P3        1.0  0.16100  0.88600  0.63800  1.0000
  P   P4        1.0  0.11400  0.83900  0.86200  1.0000
