data_image0
_chemical_formula_structural       Ge3Mn2Ru2
_chemical_formula_sum              "Ge3 Mn2 Ru2"
_cell_length_a       7.40862
_cell_length_b       7.40862
_cell_length_c       7.40862
_cell_angle_alpha    33.0456
_cell_angle_beta     33.0456
_cell_angle_gamma    33.0456

_space_group_name_H-M_alt    "P 1"
_space_group_IT_number       1

loop_
  _space_group_symop_operation_xyz
  'x, y, z'

loop_
  _atom_site_type_symbol
  _atom_site_label
  _atom_site_symmetry_multiplicity
  _atom_site_fract_x
  _atom_site_fract_y
  _atom_site_fract_z
  _atom_site_occupancy
  Ge  Ge1       1.0  0.38700  0.38700  0.38700  1.0000
  Ge  Ge2       1.0  0.62800  0.62800  0.62800  1.0000
  Ge  Ge3       1.0  0.86400  0.86400  0.86400  1.0000
  Mn  Mn1       1.0  0.24800  0.24800  0.24800  1.0000
  Mn  Mn2       1.0  0.74800  0.74800  0.74800  1.0000
  Ru  Ru1       1.0  0.50700  0.50700  0.50700  1.0000
  Ru  Ru2       1.0  0.99200  0.99200  0.99200  1.0000
