data_image0
_chemical_formula_structural       Mn2Ru2Si3
_chemical_formula_sum              "Mn2 Ru2 Si3"
_cell_length_a       7.06216
_cell_length_b       7.06216
_cell_length_c       7.06216
_cell_angle_alpha    32.8452
_cell_angle_beta     32.8452
_cell_angle_gamma    32.8452

_space_group_name_H-M_alt    "P 1"
_space_group_IT_number       1

loop_
  _space_group_symop_operation_xyz
  'x, y, z'

loop_
  _atom_site_type_symbol
  _atom_site_label
  _atom_site_symmetry_multiplicity
  _atom_site_fract_x
  _atom_site_fract_y
  _atom_site_fract_z
  _atom_site_occupancy
  Mn  Mn1       1.0  0.25300  0.25300  0.25300  1.0000
  Mn  Mn2       1.0  0.75400  0.75400  0.75400  1.0000
  Ru  Ru1       1.0  0.00193  0.00193  0.00193  1.0000
  Ru  Ru2       1.0  0.49700  0.49700  0.49700  1.0000
  Si  Si1       1.0  0.37500  0.37500  0.37500  1.0000
  Si  Si2       1.0  0.61900  0.61900  0.61900  1.0000
  Si  Si3       1.0  0.87600  0.87600  0.87600  1.0000
