data_image0
_chemical_formula_structural       Fe2Mn2Pb3
_chemical_formula_sum              "Fe2 Mn2 Pb3"
_cell_length_a       8.92565
_cell_length_b       8.92565
_cell_length_c       8.92565
_cell_angle_alpha    28.989
_cell_angle_beta     28.989
_cell_angle_gamma    28.989

_space_group_name_H-M_alt    "P 1"
_space_group_IT_number       1

loop_
  _space_group_symop_operation_xyz
  'x, y, z'

loop_
  _atom_site_type_symbol
  _atom_site_label
  _atom_site_symmetry_multiplicity
  _atom_site_fract_x
  _atom_site_fract_y
  _atom_site_fract_z
  _atom_site_occupancy
  Fe  Fe1       1.0  0.02270  0.02270  0.02270  1.0000
  Fe  Fe2       1.0  0.52300  0.52300  0.52300  1.0000
  Mn  Mn1       1.0  0.22900  0.22900  0.22900  1.0000
  Mn  Mn2       1.0  0.72600  0.72600  0.72600  1.0000
  Pb  Pb1       1.0  0.41000  0.41000  0.41000  1.0000
  Pb  Pb2       1.0  0.62400  0.62400  0.62400  1.0000
  Pb  Pb3       1.0  0.84100  0.84100  0.84100  1.0000
