data_image0
_chemical_formula_structural       Ag2Li2Mo3
_chemical_formula_sum              "Ag2 Li2 Mo3"
_cell_length_a       7.1436
_cell_length_b       7.1436
_cell_length_c       7.1436
_cell_angle_alpha    35.5144
_cell_angle_beta     35.5144
_cell_angle_gamma    35.5144

_space_group_name_H-M_alt    "P 1"
_space_group_IT_number       1

loop_
  _space_group_symop_operation_xyz
  'x, y, z'

loop_
  _atom_site_type_symbol
  _atom_site_label
  _atom_site_symmetry_multiplicity
  _atom_site_fract_x
  _atom_site_fract_y
  _atom_site_fract_z
  _atom_site_occupancy
  Ag  Ag1       1.0  0.06280  0.06280  0.06280  1.0000
  Ag  Ag2       1.0  0.48100  0.48100  0.48100  1.0000
  Li  Li1       1.0  0.19300  0.19300  0.19300  1.0000
  Li  Li2       1.0  0.76700  0.76700  0.76700  1.0000
  Mo  Mo1       1.0  0.32800  0.32800  0.32800  1.0000
  Mo  Mo2       1.0  0.62300  0.62300  0.62300  1.0000
  Mo  Mo3       1.0  0.92100  0.92100  0.92100  1.0000
