data_image0
_chemical_formula_structural       Ga2Ir2W3
_chemical_formula_sum              "Ga2 Ir2 W3"
_cell_length_a       6.85942
_cell_length_b       6.85942
_cell_length_c       6.85942
_cell_angle_alpha    37.3382
_cell_angle_beta     37.3382
_cell_angle_gamma    37.3382

_space_group_name_H-M_alt    "P 1"
_space_group_IT_number       1

loop_
  _space_group_symop_operation_xyz
  'x, y, z'

loop_
  _atom_site_type_symbol
  _atom_site_label
  _atom_site_symmetry_multiplicity
  _atom_site_fract_x
  _atom_site_fract_y
  _atom_site_fract_z
  _atom_site_occupancy
  Ga  Ga1       1.0  0.19400  0.19400  0.19400  1.0000
  Ga  Ga2       1.0  0.76900  0.76900  0.76900  1.0000
  Ir  Ir1       1.0  0.05260  0.05260  0.05260  1.0000
  Ir  Ir2       1.0  0.48300  0.48300  0.48300  1.0000
  W   W1        1.0  0.33800  0.33800  0.33800  1.0000
  W   W2        1.0  0.62700  0.62700  0.62700  1.0000
  W   W3        1.0  0.91200  0.91200  0.91200  1.0000
