data_image0
_chemical_formula_structural       Ir2La2W3
_chemical_formula_sum              "Ir2 La2 W3"
_cell_length_a       8.77712
_cell_length_b       8.77712
_cell_length_c       8.77712
_cell_angle_alpha    29.6687
_cell_angle_beta     29.6687
_cell_angle_gamma    29.6687

_space_group_name_H-M_alt    "P 1"
_space_group_IT_number       1

loop_
  _space_group_symop_operation_xyz
  'x, y, z'

loop_
  _atom_site_type_symbol
  _atom_site_label
  _atom_site_symmetry_multiplicity
  _atom_site_fract_x
  _atom_site_fract_y
  _atom_site_fract_z
  _atom_site_occupancy
  Ir  Ir1       1.0  0.02360  0.02360  0.02360  1.0000
  Ir  Ir2       1.0  0.51100  0.51100  0.51100  1.0000
  La  La1       1.0  0.19800  0.19800  0.19800  1.0000
  La  La2       1.0  0.76400  0.76400  0.76400  1.0000
  W   W1        1.0  0.33100  0.33100  0.33100  1.0000
  W   W2        1.0  0.62400  0.62400  0.62400  1.0000
  W   W3        1.0  0.92300  0.92300  0.92300  1.0000
