data_image0
_chemical_formula_structural       Gd2Ge2Sc2
_chemical_formula_sum              "Gd2 Ge2 Sc2"
_cell_length_a       4.26369
_cell_length_b       4.26369
_cell_length_c       8.37839
_cell_angle_alpha    104.741
_cell_angle_beta     104.741
_cell_angle_gamma    90

_space_group_name_H-M_alt    "P 1"
_space_group_IT_number       1

loop_
  _space_group_symop_operation_xyz
  'x, y, z'

loop_
  _atom_site_type_symbol
  _atom_site_label
  _atom_site_symmetry_multiplicity
  _atom_site_fract_x
  _atom_site_fract_y
  _atom_site_fract_z
  _atom_site_occupancy
  Gd  Gd1       1.0  0.67700  0.67700  0.35400  1.0000
  Gd  Gd2       1.0  0.32300  0.32300  0.64600  1.0000
  Ge  Ge1       1.0  0.12700  0.12700  0.25500  1.0000
  Ge  Ge2       1.0  0.87300  0.87300  0.74500  1.0000
  Sc  Sc1       1.0  0.50000  0.00000  0.00000  1.0000
  Sc  Sc2       1.0  0.00000  0.50000  0.00000  1.0000
