data_image0
_chemical_formula_structural       Al2Co2Cr3
_chemical_formula_sum              "Al2 Co2 Cr3"
_cell_length_a       6.37343
_cell_length_b       6.37343
_cell_length_c       6.37343
_cell_angle_alpha    36.5139
_cell_angle_beta     36.5139
_cell_angle_gamma    36.5139

_space_group_name_H-M_alt    "P 1"
_space_group_IT_number       1

loop_
  _space_group_symop_operation_xyz
  'x, y, z'

loop_
  _atom_site_type_symbol
  _atom_site_label
  _atom_site_symmetry_multiplicity
  _atom_site_fract_x
  _atom_site_fract_y
  _atom_site_fract_z
  _atom_site_occupancy
  Al  Al1       1.0  0.19400  0.19400  0.19400  1.0000
  Al  Al2       1.0  0.76800  0.76800  0.76800  1.0000
  Co  Co1       1.0  0.05120  0.05120  0.05120  1.0000
  Co  Co2       1.0  0.48100  0.48100  0.48100  1.0000
  Cr  Cr1       1.0  0.33800  0.33800  0.33800  1.0000
  Cr  Cr2       1.0  0.62400  0.62400  0.62400  1.0000
  Cr  Cr3       1.0  0.91900  0.91900  0.91900  1.0000
