data_image0
_chemical_formula_structural       Mo3Os2Zr2
_chemical_formula_sum              "Mo3 Os2 Zr2"
_cell_length_a       7.67057
_cell_length_b       7.67057
_cell_length_c       7.67057
_cell_angle_alpha    33.9033
_cell_angle_beta     33.9033
_cell_angle_gamma    33.9033

_space_group_name_H-M_alt    "P 1"
_space_group_IT_number       1

loop_
  _space_group_symop_operation_xyz
  'x, y, z'

loop_
  _atom_site_type_symbol
  _atom_site_label
  _atom_site_symmetry_multiplicity
  _atom_site_fract_x
  _atom_site_fract_y
  _atom_site_fract_z
  _atom_site_occupancy
  Mo  Mo1       1.0  0.37700  0.37700  0.37700  1.0000
  Mo  Mo2       1.0  0.62900  0.62900  0.62900  1.0000
  Mo  Mo3       1.0  0.87700  0.87700  0.87700  1.0000
  Os  Os1       1.0  0.49500  0.49500  0.49500  1.0000
  Os  Os2       1.0  0.99800  0.99800  0.99800  1.0000
  Zr  Zr1       1.0  0.24200  0.24200  0.24200  1.0000
  Zr  Zr2       1.0  0.75700  0.75700  0.75700  1.0000
