data_image0
_chemical_formula_structural       Fe2Li2Os3
_chemical_formula_sum              "Fe2 Li2 Os3"
_cell_length_a       6.68919
_cell_length_b       6.68919
_cell_length_c       6.68919
_cell_angle_alpha    35.5367
_cell_angle_beta     35.5367
_cell_angle_gamma    35.5367

_space_group_name_H-M_alt    "P 1"
_space_group_IT_number       1

loop_
  _space_group_symop_operation_xyz
  'x, y, z'

loop_
  _atom_site_type_symbol
  _atom_site_label
  _atom_site_symmetry_multiplicity
  _atom_site_fract_x
  _atom_site_fract_y
  _atom_site_fract_z
  _atom_site_occupancy
  Fe  Fe1       1.0  0.03260  0.03260  0.03260  1.0000
  Fe  Fe2       1.0  0.49200  0.49200  0.49200  1.0000
  Li  Li1       1.0  0.18400  0.18400  0.18400  1.0000
  Li  Li2       1.0  0.76800  0.76800  0.76800  1.0000
  Os  Os1       1.0  0.37300  0.37300  0.37300  1.0000
  Os  Os2       1.0  0.62200  0.62200  0.62200  1.0000
  Os  Os3       1.0  0.90300  0.90300  0.90300  1.0000
