data_image0
_chemical_formula_structural       Fe3In2Mo2
_chemical_formula_sum              "Fe3 In2 Mo2"
_cell_length_a       7.24084
_cell_length_b       7.24084
_cell_length_c       7.24084
_cell_angle_alpha    34.0837
_cell_angle_beta     34.0837
_cell_angle_gamma    34.0837

_space_group_name_H-M_alt    "P 1"
_space_group_IT_number       1

loop_
  _space_group_symop_operation_xyz
  'x, y, z'

loop_
  _atom_site_type_symbol
  _atom_site_label
  _atom_site_symmetry_multiplicity
  _atom_site_fract_x
  _atom_site_fract_y
  _atom_site_fract_z
  _atom_site_occupancy
  Fe  Fe1       1.0  0.37300  0.37300  0.37300  1.0000
  Fe  Fe2       1.0  0.62600  0.62600  0.62600  1.0000
  Fe  Fe3       1.0  0.87900  0.87900  0.87900  1.0000
  In  In1       1.0  0.24200  0.24200  0.24200  1.0000
  In  In2       1.0  0.75500  0.75500  0.75500  1.0000
  Mo  Mo1       1.0  0.00237  0.00237  0.00237  1.0000
  Mo  Mo2       1.0  0.49700  0.49700  0.49700  1.0000
