data_image0
_chemical_formula_structural       As2Mn2Mo3
_chemical_formula_sum              "As2 Mn2 Mo3"
_cell_length_a       6.68351
_cell_length_b       6.68351
_cell_length_c       6.68351
_cell_angle_alpha    37.3152
_cell_angle_beta     37.3152
_cell_angle_gamma    37.3152

_space_group_name_H-M_alt    "P 1"
_space_group_IT_number       1

loop_
  _space_group_symop_operation_xyz
  'x, y, z'

loop_
  _atom_site_type_symbol
  _atom_site_label
  _atom_site_symmetry_multiplicity
  _atom_site_fract_x
  _atom_site_fract_y
  _atom_site_fract_z
  _atom_site_occupancy
  As  As1       1.0  0.05570  0.05570  0.05570  1.0000
  As  As2       1.0  0.48300  0.48300  0.48300  1.0000
  Mn  Mn1       1.0  0.19800  0.19800  0.19800  1.0000
  Mn  Mn2       1.0  0.76900  0.76900  0.76900  1.0000
  Mo  Mo1       1.0  0.34000  0.34000  0.34000  1.0000
  Mo  Mo2       1.0  0.62400  0.62400  0.62400  1.0000
  Mo  Mo3       1.0  0.90500  0.90500  0.90500  1.0000
