data_image0
_chemical_formula_structural       Li4Mn2O5
_chemical_formula_sum              "Li4 Mn2 O5"
_cell_length_a       4.03324
_cell_length_b       6.53802
_cell_length_c       4.04968
_cell_angle_alpha    71.9587
_cell_angle_beta     90
_cell_angle_gamma    90

_space_group_name_H-M_alt    "P 1"
_space_group_IT_number       1

loop_
  _space_group_symop_operation_xyz
  'x, y, z'

loop_
  _atom_site_type_symbol
  _atom_site_label
  _atom_site_symmetry_multiplicity
  _atom_site_fract_x
  _atom_site_fract_y
  _atom_site_fract_z
  _atom_site_occupancy
  Li  Li1       1.0  0.00000  0.00000  0.00000  1.0000
  Li  Li2       1.0  0.00000  0.36800  0.31600  1.0000
  Li  Li3       1.0  0.50000  0.00000  0.50000  1.0000
  Li  Li4       1.0  0.00000  0.63200  0.68400  1.0000
  Mn  Mn1       1.0  0.50000  0.68100  0.15900  1.0000
  Mn  Mn2       1.0  0.50000  0.31900  0.84100  1.0000
  O   O1        1.0  0.50000  0.00000  0.00000  1.0000
  O   O2        1.0  0.00000  0.68800  0.15600  1.0000
  O   O3        1.0  0.50000  0.33400  0.33300  1.0000
  O   O4        1.0  0.50000  0.66600  0.66700  1.0000
  O   O5        1.0  0.00000  0.31200  0.84400  1.0000
