data_image0
_chemical_formula_structural       Fe2Li4O5
_chemical_formula_sum              "Fe2 Li4 O5"
_cell_length_a       4.05098
_cell_length_b       6.53029
_cell_length_c       4.05621
_cell_angle_alpha    71.9065
_cell_angle_beta     90
_cell_angle_gamma    90

_space_group_name_H-M_alt    "P 1"
_space_group_IT_number       1

loop_
  _space_group_symop_operation_xyz
  'x, y, z'

loop_
  _atom_site_type_symbol
  _atom_site_label
  _atom_site_symmetry_multiplicity
  _atom_site_fract_x
  _atom_site_fract_y
  _atom_site_fract_z
  _atom_site_occupancy
  Fe  Fe1       1.0  0.50000  0.68100  0.16000  1.0000
  Fe  Fe2       1.0  0.50000  0.31900  0.84000  1.0000
  Li  Li1       1.0  0.00000  0.00000  0.00000  1.0000
  Li  Li2       1.0  0.00000  0.37100  0.31500  1.0000
  Li  Li3       1.0  0.50000  0.00000  0.50000  1.0000
  Li  Li4       1.0  0.00000  0.62900  0.68500  1.0000
  O   O1        1.0  0.50000  0.00000  0.00000  1.0000
  O   O2        1.0  0.00000  0.68800  0.15600  1.0000
  O   O3        1.0  0.50000  0.33900  0.33100  1.0000
  O   O4        1.0  0.50000  0.66100  0.66900  1.0000
  O   O5        1.0  0.00000  0.31200  0.84400  1.0000
