data_image0
_chemical_formula_structural       Li2Pt3V2
_chemical_formula_sum              "Li2 Pt3 V2"
_cell_length_a       7.22064
_cell_length_b       7.22064
_cell_length_c       7.22064
_cell_angle_alpha    33.7463
_cell_angle_beta     33.7463
_cell_angle_gamma    33.7463

_space_group_name_H-M_alt    "P 1"
_space_group_IT_number       1

loop_
  _space_group_symop_operation_xyz
  'x, y, z'

loop_
  _atom_site_type_symbol
  _atom_site_label
  _atom_site_symmetry_multiplicity
  _atom_site_fract_x
  _atom_site_fract_y
  _atom_site_fract_z
  _atom_site_occupancy
  Li  Li1       1.0  0.24300  0.24300  0.24300  1.0000
  Li  Li2       1.0  0.75500  0.75500  0.75500  1.0000
  Pt  Pt1       1.0  0.37600  0.37600  0.37600  1.0000
  Pt  Pt2       1.0  0.62500  0.62500  0.62500  1.0000
  Pt  Pt3       1.0  0.87600  0.87600  0.87600  1.0000
  V   V1        1.0  0.00500  0.00500  0.00500  1.0000
  V   V2        1.0  0.49600  0.49600  0.49600  1.0000
