data_image0
_chemical_formula_structural       Na2Sr2Zn3
_chemical_formula_sum              "Na2 Sr2 Zn3"
_cell_length_a       8.95515
_cell_length_b       8.95515
_cell_length_c       8.95515
_cell_angle_alpha    34.2987
_cell_angle_beta     34.2987
_cell_angle_gamma    34.2987

_space_group_name_H-M_alt    "P 1"
_space_group_IT_number       1

loop_
  _space_group_symop_operation_xyz
  'x, y, z'

loop_
  _atom_site_type_symbol
  _atom_site_label
  _atom_site_symmetry_multiplicity
  _atom_site_fract_x
  _atom_site_fract_y
  _atom_site_fract_z
  _atom_site_occupancy
  Na  Na1       1.0  0.24800  0.24800  0.24800  1.0000
  Na  Na2       1.0  0.75100  0.75100  0.75100  1.0000
  Sr  Sr1       1.0  0.00573  0.00573  0.00573  1.0000
  Sr  Sr2       1.0  0.49700  0.49700  0.49700  1.0000
  Zn  Zn1       1.0  0.36800  0.36800  0.36800  1.0000
  Zn  Zn2       1.0  0.62500  0.62500  0.62500  1.0000
  Zn  Zn3       1.0  0.88000  0.88000  0.88000  1.0000
