data_image0
_chemical_formula_structural       Mg4Ti2
_chemical_formula_sum              "Mg4 Ti2"
_cell_length_a       5.07127
_cell_length_b       5.31677
_cell_length_c       5.31677
_cell_angle_alpha    60
_cell_angle_beta     90
_cell_angle_gamma    90

_space_group_name_H-M_alt    "P 1"
_space_group_IT_number       1

loop_
  _space_group_symop_operation_xyz
  'x, y, z'

loop_
  _atom_site_type_symbol
  _atom_site_label
  _atom_site_symmetry_multiplicity
  _atom_site_fract_x
  _atom_site_fract_y
  _atom_site_fract_z
  _atom_site_occupancy
  Mg  Mg1       1.0  0.00000  0.98800  0.00000  1.0000
  Mg  Mg2       1.0  0.50000  0.33300  0.00000  1.0000
  Mg  Mg3       1.0  0.00000  0.33300  0.34500  1.0000
  Mg  Mg4       1.0  0.00000  0.67900  0.65500  1.0000
  Ti  Ti1       1.0  0.50000  0.66700  0.33300  1.0000
  Ti  Ti2       1.0  0.50000  0.00000  0.66700  1.0000
