data_image0
_chemical_formula_structural       Be2Ni3Pb2
_chemical_formula_sum              "Be2 Ni3 Pb2"
_cell_length_a       7.1552
_cell_length_b       7.1552
_cell_length_c       7.1552
_cell_angle_alpha    34.0474
_cell_angle_beta     34.0474
_cell_angle_gamma    34.0474

_space_group_name_H-M_alt    "P 1"
_space_group_IT_number       1

loop_
  _space_group_symop_operation_xyz
  'x, y, z'

loop_
  _atom_site_type_symbol
  _atom_site_label
  _atom_site_symmetry_multiplicity
  _atom_site_fract_x
  _atom_site_fract_y
  _atom_site_fract_z
  _atom_site_occupancy
  Be  Be1       1.0  0.25100  0.25100  0.25100  1.0000
  Be  Be2       1.0  0.75000  0.75000  0.75000  1.0000
  Ni  Ni1       1.0  0.36800  0.36800  0.36800  1.0000
  Ni  Ni2       1.0  0.62200  0.62200  0.62200  1.0000
  Ni  Ni3       1.0  0.88000  0.88000  0.88000  1.0000
  Pb  Pb1       1.0  0.01030  0.01030  0.01030  1.0000
  Pb  Pb2       1.0  0.49300  0.49300  0.49300  1.0000
