data_image0
_chemical_formula_structural       Ca2Hf2Pt3
_chemical_formula_sum              "Ca2 Hf2 Pt3"
_cell_length_a       8.39023
_cell_length_b       8.39023
_cell_length_c       8.39023
_cell_angle_alpha    33.5192
_cell_angle_beta     33.5192
_cell_angle_gamma    33.5192

_space_group_name_H-M_alt    "P 1"
_space_group_IT_number       1

loop_
  _space_group_symop_operation_xyz
  'x, y, z'

loop_
  _atom_site_type_symbol
  _atom_site_label
  _atom_site_symmetry_multiplicity
  _atom_site_fract_x
  _atom_site_fract_y
  _atom_site_fract_z
  _atom_site_occupancy
  Ca  Ca1       1.0  0.24700  0.24700  0.24700  1.0000
  Ca  Ca2       1.0  0.75200  0.75200  0.75200  1.0000
  Hf  Hf1       1.0  0.50300  0.50300  0.50300  1.0000
  Hf  Hf2       1.0  0.99700  0.99700  0.99700  1.0000
  Pt  Pt1       1.0  0.37600  0.37600  0.37600  1.0000
  Pt  Pt2       1.0  0.62500  0.62500  0.62500  1.0000
  Pt  Pt3       1.0  0.87500  0.87500  0.87500  1.0000
