data_image0
_chemical_formula_structural       Li4O5Tm2
_chemical_formula_sum              "Li4 O5 Tm2"
_cell_length_a       4.39297
_cell_length_b       7.03882
_cell_length_c       4.39419
_cell_angle_alpha    71.8118
_cell_angle_beta     90
_cell_angle_gamma    90

_space_group_name_H-M_alt    "P 1"
_space_group_IT_number       1

loop_
  _space_group_symop_operation_xyz
  'x, y, z'

loop_
  _atom_site_type_symbol
  _atom_site_label
  _atom_site_symmetry_multiplicity
  _atom_site_fract_x
  _atom_site_fract_y
  _atom_site_fract_z
  _atom_site_occupancy
  Li  Li1       1.0  0.00000  0.00000  0.00000  1.0000
  Li  Li2       1.0  0.00000  0.37500  0.31200  1.0000
  Li  Li3       1.0  0.50000  0.00000  0.50000  1.0000
  Li  Li4       1.0  0.00000  0.62500  0.68800  1.0000
  O   O1        1.0  0.50000  0.00000  0.00000  1.0000
  O   O2        1.0  0.00000  0.68600  0.15700  1.0000
  O   O3        1.0  0.50000  0.33400  0.33300  1.0000
  O   O4        1.0  0.50000  0.66600  0.66700  1.0000
  O   O5        1.0  0.00000  0.31400  0.84300  1.0000
  Tm  Tm1       1.0  0.50000  0.68300  0.15800  1.0000
  Tm  Tm2       1.0  0.50000  0.31700  0.84200  1.0000
