data_image0
_chemical_formula_structural       Al2Ge2Pr2
_chemical_formula_sum              "Al2 Ge2 Pr2"
_cell_length_a       4.30248
_cell_length_b       4.30248
_cell_length_c       7.98239
_cell_angle_alpha    105.634
_cell_angle_beta     105.634
_cell_angle_gamma    90

_space_group_name_H-M_alt    "P 1"
_space_group_IT_number       1

loop_
  _space_group_symop_operation_xyz
  'x, y, z'

loop_
  _atom_site_type_symbol
  _atom_site_label
  _atom_site_symmetry_multiplicity
  _atom_site_fract_x
  _atom_site_fract_y
  _atom_site_fract_z
  _atom_site_occupancy
  Al  Al1       1.0  0.16700  0.16700  0.33500  1.0000
  Al  Al2       1.0  0.41700  0.91700  0.83500  1.0000
  Ge  Ge1       1.0  0.00094  0.00094  0.00187  1.0000
  Ge  Ge2       1.0  0.25100  0.75100  0.50200  1.0000
  Pr  Pr1       1.0  0.58300  0.58300  0.16600  1.0000
  Pr  Pr2       1.0  0.83300  0.33300  0.66600  1.0000
