data_image0
_chemical_formula_structural       Li4O5W2
_chemical_formula_sum              "Li4 O5 W2"
_cell_length_a       4.16283
_cell_length_b       6.50117
_cell_length_c       4.05257
_cell_angle_alpha    71.8395
_cell_angle_beta     90
_cell_angle_gamma    90

_space_group_name_H-M_alt    "P 1"
_space_group_IT_number       1

loop_
  _space_group_symop_operation_xyz
  'x, y, z'

loop_
  _atom_site_type_symbol
  _atom_site_label
  _atom_site_symmetry_multiplicity
  _atom_site_fract_x
  _atom_site_fract_y
  _atom_site_fract_z
  _atom_site_occupancy
  Li  Li1       1.0  0.00000  0.00000  0.00000  1.0000
  Li  Li2       1.0  0.00000  0.35200  0.32400  1.0000
  Li  Li3       1.0  0.50000  0.00000  0.50000  1.0000
  Li  Li4       1.0  0.00000  0.64800  0.67600  1.0000
  O   O1        1.0  0.50000  0.00000  0.00000  1.0000
  O   O2        1.0  0.00000  0.69000  0.15500  1.0000
  O   O3        1.0  0.50000  0.29200  0.35400  1.0000
  O   O4        1.0  0.50000  0.70800  0.64600  1.0000
  O   O5        1.0  0.00000  0.31000  0.84500  1.0000
  W   W1        1.0  0.50000  0.64400  0.17800  1.0000
  W   W2        1.0  0.50000  0.35600  0.82200  1.0000
