data_image0
_chemical_formula_structural       O2Rb2Se2Yb2
_chemical_formula_sum              "O2 Rb2 Se2 Yb2"
_cell_length_a       4.60767
_cell_length_b       4.60767
_cell_length_c       9.58762
_cell_angle_alpha    90
_cell_angle_beta     90
_cell_angle_gamma    90

_space_group_name_H-M_alt    "P 1"
_space_group_IT_number       1

loop_
  _space_group_symop_operation_xyz
  'x, y, z'

loop_
  _atom_site_type_symbol
  _atom_site_label
  _atom_site_symmetry_multiplicity
  _atom_site_fract_x
  _atom_site_fract_y
  _atom_site_fract_z
  _atom_site_occupancy
  O   O1        1.0  0.75000  0.25000  0.00000  1.0000
  O   O2        1.0  0.25000  0.75000  0.00000  1.0000
  Rb  Rb1       1.0  0.75000  0.25000  0.50000  1.0000
  Rb  Rb2       1.0  0.25000  0.75000  0.50000  1.0000
  Se  Se1       1.0  0.75000  0.75000  0.26000  1.0000
  Se  Se2       1.0  0.25000  0.25000  0.74000  1.0000
  Yb  Yb1       1.0  0.25000  0.25000  0.04780  1.0000
  Yb  Yb2       1.0  0.75000  0.75000  0.95200  1.0000
