data_image0
_chemical_formula_structural       As3Fe3Ni3
_chemical_formula_sum              "As3 Fe3 Ni3"
_cell_length_a       6.03365
_cell_length_b       6.03365
_cell_length_c       3.57914
_cell_angle_alpha    90
_cell_angle_beta     90
_cell_angle_gamma    119.997

_space_group_name_H-M_alt    "P 1"
_space_group_IT_number       1

loop_
  _space_group_symop_operation_xyz
  'x, y, z'

loop_
  _atom_site_type_symbol
  _atom_site_label
  _atom_site_symmetry_multiplicity
  _atom_site_fract_x
  _atom_site_fract_y
  _atom_site_fract_z
  _atom_site_occupancy
  As  As1       1.0  0.66700  0.33300  0.00000  1.0000
  As  As2       1.0  0.33300  0.66700  0.00000  1.0000
  As  As3       1.0  0.00001  0.00001  0.50000  1.0000
  Fe  Fe1       1.0  0.59000  0.00001  0.50000  1.0000
  Fe  Fe2       1.0  0.41000  0.41000  0.50000  1.0000
  Fe  Fe3       1.0  0.00001  0.59000  0.50000  1.0000
  Ni  Ni1       1.0  0.25200  0.00001  0.00000  1.0000
  Ni  Ni2       1.0  0.00001  0.25200  0.00000  1.0000
  Ni  Ni3       1.0  0.74800  0.74800  0.00000  1.0000
