data_image0
_chemical_formula_structural       As2Cu2Dy2O2
_chemical_formula_sum              "As2 Cu2 Dy2 O2"
_cell_length_a       3.86255
_cell_length_b       3.86255
_cell_length_c       8.74307
_cell_angle_alpha    90
_cell_angle_beta     90
_cell_angle_gamma    89.9975

_space_group_name_H-M_alt    "P 1"
_space_group_IT_number       1

loop_
  _space_group_symop_operation_xyz
  'x, y, z'

loop_
  _atom_site_type_symbol
  _atom_site_label
  _atom_site_symmetry_multiplicity
  _atom_site_fract_x
  _atom_site_fract_y
  _atom_site_fract_z
  _atom_site_occupancy
  As  As1       1.0  0.75000  0.75000  0.32900  1.0000
  As  As2       1.0  0.25000  0.25000  0.67100  1.0000
  Cu  Cu1       1.0  0.75000  0.25000  0.50000  1.0000
  Cu  Cu2       1.0  0.25000  0.75000  0.50000  1.0000
  Dy  Dy1       1.0  0.25000  0.25000  0.12800  1.0000
  Dy  Dy2       1.0  0.75000  0.75000  0.87200  1.0000
  O   O1        1.0  0.75000  0.25000  0.00000  1.0000
  O   O2        1.0  0.25000  0.75000  0.00000  1.0000
