data_image0
_chemical_formula_structural       As2Cd2O2Si2
_chemical_formula_sum              "As2 Cd2 O2 Si2"
_cell_length_a       3.79549
_cell_length_b       3.79549
_cell_length_c       9.39025
_cell_angle_alpha    90
_cell_angle_beta     90
_cell_angle_gamma    90

_space_group_name_H-M_alt    "P 1"
_space_group_IT_number       1

loop_
  _space_group_symop_operation_xyz
  'x, y, z'

loop_
  _atom_site_type_symbol
  _atom_site_label
  _atom_site_symmetry_multiplicity
  _atom_site_fract_x
  _atom_site_fract_y
  _atom_site_fract_z
  _atom_site_occupancy
  As  As1       1.0  0.75000  0.75000  0.28800  1.0000
  As  As2       1.0  0.25000  0.25000  0.71200  1.0000
  Cd  Cd1       1.0  0.75000  0.25000  0.50000  1.0000
  Cd  Cd2       1.0  0.25000  0.75000  0.50000  1.0000
  O   O1        1.0  0.75000  0.25000  0.00000  1.0000
  O   O2        1.0  0.25000  0.75000  0.00000  1.0000
  Si  Si1       1.0  0.25000  0.25000  0.09390  1.0000
  Si  Si2       1.0  0.75000  0.75000  0.90600  1.0000
