data_image0
_chemical_formula_structural       LaRh3Si2
_chemical_formula_sum              "La1 Rh3 Si2"
_cell_length_a       5.6301
_cell_length_b       5.6301
_cell_length_c       3.68871
_cell_angle_alpha    90
_cell_angle_beta     90
_cell_angle_gamma    119.995

_space_group_name_H-M_alt    "P 1"
_space_group_IT_number       1

loop_
  _space_group_symop_operation_xyz
  'x, y, z'

loop_
  _atom_site_type_symbol
  _atom_site_label
  _atom_site_symmetry_multiplicity
  _atom_site_fract_x
  _atom_site_fract_y
  _atom_site_fract_z
  _atom_site_occupancy
  La  La1       1.0  0.00000  0.00000  0.00000  1.0000
  Rh  Rh1       1.0  0.50000  0.00000  0.50000  1.0000
  Rh  Rh2       1.0  0.50000  0.50000  0.50000  1.0000
  Rh  Rh3       1.0  0.00000  0.50000  0.50000  1.0000
  Si  Si1       1.0  0.66700  0.33300  0.00000  1.0000
  Si  Si2       1.0  0.33300  0.66700  0.00000  1.0000
