data_image0
_chemical_formula_structural       AgClO4
_chemical_formula_sum              "Ag1 Cl1 O4"
_cell_length_a       4.81665
_cell_length_b       4.81665
_cell_length_c       4.81665
_cell_angle_alpha    92.2676
_cell_angle_beta     118.7
_cell_angle_gamma    118.7

_space_group_name_H-M_alt    "P 1"
_space_group_IT_number       1

loop_
  _space_group_symop_operation_xyz
  'x, y, z'

loop_
  _atom_site_type_symbol
  _atom_site_label
  _atom_site_symmetry_multiplicity
  _atom_site_fract_x
  _atom_site_fract_y
  _atom_site_fract_z
  _atom_site_occupancy
  Ag  Ag1       1.0  0.00000  0.50000  0.50000  1.0000
  Cl  Cl1       1.0  0.00000  0.00000  0.00000  1.0000
  O   O1        1.0  0.34100  0.04150  0.04150  1.0000
  O   O2        1.0  1.00000  0.95900  0.29900  1.0000
  O   O3        1.0  0.65900  0.70100  0.70100  1.0000
  O   O4        1.0  0.00000  0.29900  0.95900  1.0000
