data_image0
_chemical_formula_structural       Bi10La6Mg2
_chemical_formula_sum              "Bi10 La6 Mg2"
_cell_length_a       9.8297
_cell_length_b       9.8297
_cell_length_c       6.57081
_cell_angle_alpha    90
_cell_angle_beta     90
_cell_angle_gamma    120

_space_group_name_H-M_alt    "P 1"
_space_group_IT_number       1

loop_
  _space_group_symop_operation_xyz
  'x, y, z'

loop_
  _atom_site_type_symbol
  _atom_site_label
  _atom_site_symmetry_multiplicity
  _atom_site_fract_x
  _atom_site_fract_y
  _atom_site_fract_z
  _atom_site_occupancy
  Bi  Bi1       1.0  0.66700  0.33300  0.00000  1.0000
  Bi  Bi2       1.0  0.33300  0.66700  0.00000  1.0000
  Bi  Bi3       1.0  0.26600  0.00000  0.25000  1.0000
  Bi  Bi4       1.0  0.00000  0.26600  0.25000  1.0000
  Bi  Bi5       1.0  0.73400  0.73400  0.25000  1.0000
  Bi  Bi6       1.0  0.66700  0.33300  0.50000  1.0000
  Bi  Bi7       1.0  0.33300  0.66700  0.50000  1.0000
  Bi  Bi8       1.0  0.26600  0.26600  0.75000  1.0000
  Bi  Bi9       1.0  0.73400  0.00000  0.75000  1.0000
  Bi  Bi10      1.0  0.00000  0.73400  0.75000  1.0000
  La  La1       1.0  0.61900  0.00000  0.25000  1.0000
  La  La2       1.0  0.00000  0.61900  0.25000  1.0000
  La  La3       1.0  0.38100  0.38100  0.25000  1.0000
  La  La4       1.0  0.38100  0.00000  0.75000  1.0000
  La  La5       1.0  0.00000  0.38100  0.75000  1.0000
  La  La6       1.0  0.61900  0.61900  0.75000  1.0000
  Mg  Mg1       1.0  0.00000  0.00000  0.00000  1.0000
  Mg  Mg2       1.0  0.00000  0.00000  0.50000  1.0000
