data_image0
_chemical_formula_structural       Ce8O16Pd4
_chemical_formula_sum              "Ce8 O16 Pd4"
_cell_length_a       5.74392
_cell_length_b       5.76864
_cell_length_c       12.6368
_cell_angle_alpha    90
_cell_angle_beta     90
_cell_angle_gamma    90

_space_group_name_H-M_alt    "P 1"
_space_group_IT_number       1

loop_
  _space_group_symop_operation_xyz
  'x, y, z'

loop_
  _atom_site_type_symbol
  _atom_site_label
  _atom_site_symmetry_multiplicity
  _atom_site_fract_x
  _atom_site_fract_y
  _atom_site_fract_z
  _atom_site_occupancy
  Ce  Ce1       1.0  0.49100  0.03610  0.15400  1.0000
  Ce  Ce2       1.0  0.00891  0.53600  0.15400  1.0000
  Ce  Ce3       1.0  0.99100  0.03610  0.34600  1.0000
  Ce  Ce4       1.0  0.50900  0.53600  0.34600  1.0000
  Ce  Ce5       1.0  0.49100  0.46400  0.65400  1.0000
  Ce  Ce6       1.0  0.00891  0.96400  0.65400  1.0000
  Ce  Ce7       1.0  0.99100  0.46400  0.84600  1.0000
  Ce  Ce8       1.0  0.50900  0.96400  0.84600  1.0000
  O   O1        1.0  0.20100  0.29900  0.01100  1.0000
  O   O2        1.0  0.29900  0.79900  0.01100  1.0000
  O   O3        1.0  0.75700  0.28600  0.24500  1.0000
  O   O4        1.0  0.74300  0.78600  0.24500  1.0000
  O   O5        1.0  0.25700  0.28600  0.25500  1.0000
  O   O6        1.0  0.24300  0.78600  0.25500  1.0000
  O   O7        1.0  0.70100  0.29900  0.48900  1.0000
  O   O8        1.0  0.79900  0.79900  0.48900  1.0000
  O   O9        1.0  0.20100  0.20100  0.51100  1.0000
  O   O10       1.0  0.29900  0.70100  0.51100  1.0000
  O   O11       1.0  0.75700  0.21400  0.74500  1.0000
  O   O12       1.0  0.74300  0.71400  0.74500  1.0000
  O   O13       1.0  0.25700  0.21400  0.75500  1.0000
  O   O14       1.0  0.24300  0.71400  0.75500  1.0000
  O   O15       1.0  0.70100  0.20100  0.98900  1.0000
  O   O16       1.0  0.79900  0.70100  0.98900  1.0000
  Pd  Pd1       1.0  0.00000  0.00000  0.00000  1.0000
  Pd  Pd2       1.0  0.50000  0.50000  0.00000  1.0000
  Pd  Pd3       1.0  0.50000  0.00000  0.50000  1.0000
  Pd  Pd4       1.0  0.00000  0.50000  0.50000  1.0000
