data_image0
_chemical_formula_structural       Cd3Ce3Cu3
_chemical_formula_sum              "Cd3 Ce3 Cu3"
_cell_length_a       7.65817
_cell_length_b       7.65817
_cell_length_c       4.108
_cell_angle_alpha    90
_cell_angle_beta     90
_cell_angle_gamma    120

_space_group_name_H-M_alt    "P 1"
_space_group_IT_number       1

loop_
  _space_group_symop_operation_xyz
  'x, y, z'

loop_
  _atom_site_type_symbol
  _atom_site_label
  _atom_site_symmetry_multiplicity
  _atom_site_fract_x
  _atom_site_fract_y
  _atom_site_fract_z
  _atom_site_occupancy
  Cd  Cd1       1.0  0.24400  0.00001  0.00000  1.0000
  Cd  Cd2       1.0  0.00001  0.24400  0.00000  1.0000
  Cd  Cd3       1.0  0.75600  0.75600  0.00000  1.0000
  Ce  Ce1       1.0  0.58800  0.00003  0.50000  1.0000
  Ce  Ce2       1.0  0.41200  0.41200  0.50000  1.0000
  Ce  Ce3       1.0  0.00002  0.58800  0.50000  1.0000
  Cu  Cu1       1.0  0.66700  0.33300  0.00000  1.0000
  Cu  Cu2       1.0  0.33300  0.66700  0.00000  1.0000
  Cu  Cu3       1.0  0.00000  0.00000  0.50000  1.0000
