data_image0
_chemical_formula_structural       Bi4Mo2
_chemical_formula_sum              "Bi4 Mo2"
_cell_length_a       7.22407
_cell_length_b       6.33999
_cell_length_c       3.44444
_cell_angle_alpha    90
_cell_angle_beta     90
_cell_angle_gamma    90

_space_group_name_H-M_alt    "P 1"
_space_group_IT_number       1

loop_
  _space_group_symop_operation_xyz
  'x, y, z'

loop_
  _atom_site_type_symbol
  _atom_site_label
  _atom_site_symmetry_multiplicity
  _atom_site_fract_x
  _atom_site_fract_y
  _atom_site_fract_z
  _atom_site_occupancy
  Bi  Bi1       1.0  0.15500  0.29400  0.00000  1.0000
  Bi  Bi2       1.0  0.84500  0.70600  0.00000  1.0000
  Bi  Bi3       1.0  0.65500  0.20600  0.50000  1.0000
  Bi  Bi4       1.0  0.34500  0.79400  0.50000  1.0000
  Mo  Mo1       1.0  0.50000  0.50000  0.00000  1.0000
  Mo  Mo2       1.0  0.00000  0.00000  0.50000  1.0000
