data_image0
_chemical_formula_structural       C10H22Mn2N2O12
_chemical_formula_sum              "C10 H22 Mn2 N2 O12"
_cell_length_a       8.20313
_cell_length_b       8.20313
_cell_length_c       8.72924
_cell_angle_alpha    116.291
_cell_angle_beta     116.291
_cell_angle_gamma    60.2676

_space_group_name_H-M_alt    "P 1"
_space_group_IT_number       1

loop_
  _space_group_symop_operation_xyz
  'x, y, z'

loop_
  _atom_site_type_symbol
  _atom_site_label
  _atom_site_symmetry_multiplicity
  _atom_site_fract_x
  _atom_site_fract_y
  _atom_site_fract_z
  _atom_site_occupancy
  C   C1        1.0  0.00045  0.45800  0.00616  1.0000
  C   C2        1.0  0.37700  0.86200  0.17900  1.0000
  C   C3        1.0  0.85600  0.91200  0.34300  1.0000
  C   C4        1.0  0.42300  0.48100  0.34900  1.0000
  C   C5        1.0  0.96900  0.38500  0.35500  1.0000
  C   C6        1.0  0.45800  0.00045  0.50600  1.0000
  C   C7        1.0  0.86200  0.37700  0.67900  1.0000
  C   C8        1.0  0.91200  0.85600  0.84300  1.0000
  C   C9        1.0  0.48100  0.42300  0.84900  1.0000
  C   C10       1.0  0.38500  0.96900  0.85500  1.0000
  H   H1        1.0  0.87900  0.60000  0.02200  1.0000
  H   H2        1.0  0.26700  0.81400  0.06240  1.0000
  H   H3        1.0  0.05320  0.40200  0.11900  1.0000
  H   H4        1.0  0.39200  0.98300  0.17000  1.0000
  H   H5        1.0  0.51900  0.73900  0.19000  1.0000
  H   H6        1.0  0.97100  0.84200  0.27500  1.0000
  H   H7        1.0  0.17900  0.04480  0.32400  1.0000
  H   H8        1.0  0.83300  0.51900  0.35200  1.0000
  H   H9        1.0  0.30600  0.81600  0.35500  1.0000
  H   H10       1.0  0.44000  0.34900  0.36900  1.0000
  H   H11       1.0  0.47600  0.11900  0.49600  1.0000
  H   H12       1.0  0.60000  0.87900  0.52200  1.0000
  H   H13       1.0  0.81400  0.26700  0.56200  1.0000
  H   H14       1.0  0.40200  0.05320  0.61900  1.0000
  H   H15       1.0  0.98300  0.39200  0.67000  1.0000
  H   H16       1.0  0.73900  0.51900  0.69000  1.0000
  H   H17       1.0  0.84200  0.97100  0.77500  1.0000
  H   H18       1.0  0.04480  0.17900  0.82400  1.0000
  H   H19       1.0  0.51900  0.83300  0.85200  1.0000
  H   H20       1.0  0.81600  0.30600  0.85500  1.0000
  H   H21       1.0  0.34900  0.44000  0.86900  1.0000
  H   H22       1.0  0.11900  0.47600  0.99600  1.0000
  Mn  Mn1       1.0  0.67700  0.17300  0.10500  1.0000
  Mn  Mn2       1.0  0.17300  0.67700  0.60500  1.0000
  N   N1        1.0  0.31800  0.93100  0.34100  1.0000
  N   N2        1.0  0.93100  0.31800  0.84100  1.0000
  O   O1        1.0  0.51500  0.46100  0.25400  1.0000
  O   O2        1.0  0.95000  0.22000  0.27300  1.0000
  O   O3        1.0  0.69900  0.04610  0.28800  1.0000
  O   O4        1.0  0.31100  0.64700  0.42400  1.0000
  O   O5        1.0  0.13200  0.40300  0.43800  1.0000
  O   O6        1.0  0.88900  0.85400  0.47000  1.0000
  O   O7        1.0  0.46100  0.51500  0.75400  1.0000
  O   O8        1.0  0.22000  0.95000  0.77300  1.0000
  O   O9        1.0  0.04610  0.69900  0.78800  1.0000
  O   O10       1.0  0.64700  0.31100  0.92400  1.0000
  O   O11       1.0  0.40300  0.13200  0.93800  1.0000
  O   O12       1.0  0.85400  0.88900  0.97000  1.0000
