data_image0
_chemical_formula_structural       C8H22N2O20
_chemical_formula_sum              "C8 H22 N2 O20"
_cell_length_a       5.96457
_cell_length_b       6.98205
_cell_length_c       10.208
_cell_angle_alpha    95.3017
_cell_angle_beta     99.2144
_cell_angle_gamma    95.8296

_space_group_name_H-M_alt    "P 1"
_space_group_IT_number       1

loop_
  _space_group_symop_operation_xyz
  'x, y, z'

loop_
  _atom_site_type_symbol
  _atom_site_label
  _atom_site_symmetry_multiplicity
  _atom_site_fract_x
  _atom_site_fract_y
  _atom_site_fract_z
  _atom_site_occupancy
  C   C1        1.0  0.27100  0.57100  0.03850  1.0000
  C   C2        1.0  0.75500  0.31800  0.08620  1.0000
  C   C3        1.0  0.41900  0.99000  0.43200  1.0000
  C   C4        1.0  0.50800  0.54700  0.43600  1.0000
  C   C5        1.0  0.49200  0.45300  0.56400  1.0000
  C   C6        1.0  0.58100  0.00973  0.56800  1.0000
  C   C7        1.0  0.24500  0.68200  0.91400  1.0000
  C   C8        1.0  0.72900  0.42900  0.96200  1.0000
  H   H1        1.0  0.26400  0.98200  0.06300  1.0000
  H   H2        1.0  0.23700  0.21100  0.10600  1.0000
  H   H3        1.0  0.83600  0.73800  0.14700  1.0000
  H   H4        1.0  0.79400  0.96900  0.19000  1.0000
  H   H5        1.0  0.35200  0.07600  0.23200  1.0000
  H   H6        1.0  0.33900  0.57900  0.24800  1.0000
  H   H7        1.0  0.00686  0.87000  0.28300  1.0000
  H   H8        1.0  0.73700  0.79000  0.28900  1.0000
  H   H9        1.0  0.87800  0.33200  0.29800  1.0000
  H   H10       1.0  0.10300  0.30400  0.43800  1.0000
  H   H11       1.0  0.84800  0.19800  0.44400  1.0000
  H   H12       1.0  0.15200  0.80200  0.55600  1.0000
  H   H13       1.0  0.89700  0.69600  0.56200  1.0000
  H   H14       1.0  0.12200  0.66800  0.70200  1.0000
  H   H15       1.0  0.26300  0.21000  0.71100  1.0000
  H   H16       1.0  0.99300  0.13000  0.71700  1.0000
  H   H17       1.0  0.66100  0.42100  0.75200  1.0000
  H   H18       1.0  0.64800  0.92400  0.76800  1.0000
  H   H19       1.0  0.20600  0.03070  0.81000  1.0000
  H   H20       1.0  0.16400  0.26200  0.85300  1.0000
  H   H21       1.0  0.76300  0.78900  0.89400  1.0000
  H   H22       1.0  0.73600  0.01770  0.93700  1.0000
  N   N1        1.0  0.84300  0.84300  0.22600  1.0000
  N   N2        1.0  0.15700  0.15700  0.77400  1.0000
  O   O1        1.0  0.23200  0.38900  0.02070  1.0000
  O   O2        1.0  0.71800  0.13700  0.06950  1.0000
  O   O3        1.0  0.22800  0.07750  0.13700  1.0000
  O   O4        1.0  0.32900  0.67500  0.15000  1.0000
  O   O5        1.0  0.81400  0.42300  0.19800  1.0000
  O   O6        1.0  0.33800  0.49300  0.34100  1.0000
  O   O7        1.0  0.49400  0.08040  0.34300  1.0000
  O   O8        1.0  0.95200  0.24800  0.38200  1.0000
  O   O9        1.0  0.23000  0.88800  0.42200  1.0000
  O   O10       1.0  0.67800  0.66600  0.43300  1.0000
  O   O11       1.0  0.32200  0.33400  0.56700  1.0000
  O   O12       1.0  0.77000  0.11200  0.57800  1.0000
  O   O13       1.0  0.04830  0.75200  0.61800  1.0000
  O   O14       1.0  0.50600  0.92000  0.65700  1.0000
  O   O15       1.0  0.66200  0.50700  0.65900  1.0000
  O   O16       1.0  0.18600  0.57700  0.80200  1.0000
  O   O17       1.0  0.67100  0.32500  0.85000  1.0000
  O   O18       1.0  0.77200  0.92200  0.86300  1.0000
  O   O19       1.0  0.28200  0.86300  0.93100  1.0000
  O   O20       1.0  0.76800  0.61100  0.97900  1.0000
