data_image0
_chemical_formula_structural       Br2C4H16N2
_chemical_formula_sum              "Br2 C4 H16 N2"
_cell_length_a       8.29411
_cell_length_b       6.14518
_cell_length_c       4.5356
_cell_angle_alpha    90
_cell_angle_beta     93.235
_cell_angle_gamma    90

_space_group_name_H-M_alt    "P 1"
_space_group_IT_number       1

loop_
  _space_group_symop_operation_xyz
  'x, y, z'

loop_
  _atom_site_type_symbol
  _atom_site_label
  _atom_site_symmetry_multiplicity
  _atom_site_fract_x
  _atom_site_fract_y
  _atom_site_fract_z
  _atom_site_occupancy
  Br  Br1       1.0  0.16700  0.75000  0.39800  1.0000
  Br  Br2       1.0  0.83300  0.25000  0.60200  1.0000
  C   C1        1.0  0.28400  0.25000  0.95000  1.0000
  C   C2        1.0  0.71600  0.75000  0.05030  1.0000
  C   C3        1.0  0.43400  0.25000  0.15600  1.0000
  C   C4        1.0  0.56600  0.75000  0.84400  1.0000
  H   H1        1.0  0.96900  0.75000  0.02290  1.0000
  H   H2        1.0  0.54200  0.25000  0.02860  1.0000
  H   H3        1.0  0.72300  0.60400  0.19100  1.0000
  H   H4        1.0  0.72300  0.89600  0.19100  1.0000
  H   H5        1.0  0.13100  0.11100  0.25200  1.0000
  H   H6        1.0  0.13100  0.38900  0.25200  1.0000
  H   H7        1.0  0.43800  0.10500  0.29800  1.0000
  H   H8        1.0  0.43800  0.39500  0.29800  1.0000
  H   H9        1.0  0.56200  0.60500  0.70200  1.0000
  H   H10       1.0  0.56200  0.89500  0.70200  1.0000
  H   H11       1.0  0.86900  0.61100  0.74800  1.0000
  H   H12       1.0  0.86900  0.88900  0.74800  1.0000
  H   H13       1.0  0.27700  0.10400  0.80900  1.0000
  H   H14       1.0  0.27700  0.39600  0.80900  1.0000
  H   H15       1.0  0.45800  0.75000  0.97100  1.0000
  H   H16       1.0  0.03080  0.25000  0.97700  1.0000
  N   N1        1.0  0.13500  0.25000  0.12000  1.0000
  N   N2        1.0  0.86500  0.75000  0.88000  1.0000
