data_image0
_chemical_formula_structural       Ce2Hg2O2Se2
_chemical_formula_sum              "Ce2 Hg2 O2 Se2"
_cell_length_a       4.18427
_cell_length_b       4.18427
_cell_length_c       10.1632
_cell_angle_alpha    90
_cell_angle_beta     90
_cell_angle_gamma    90

_space_group_name_H-M_alt    "P 1"
_space_group_IT_number       1

loop_
  _space_group_symop_operation_xyz
  'x, y, z'

loop_
  _atom_site_type_symbol
  _atom_site_label
  _atom_site_symmetry_multiplicity
  _atom_site_fract_x
  _atom_site_fract_y
  _atom_site_fract_z
  _atom_site_occupancy
  Ce  Ce1       1.0  0.25000  0.25000  0.11600  1.0000
  Ce  Ce2       1.0  0.75000  0.75000  0.88400  1.0000
  Hg  Hg1       1.0  0.75000  0.25000  0.50000  1.0000
  Hg  Hg2       1.0  0.25000  0.75000  0.50000  1.0000
  O   O1        1.0  0.75000  0.25000  0.00000  1.0000
  O   O2        1.0  0.25000  0.75000  0.00000  1.0000
  Se  Se1       1.0  0.75000  0.75000  0.27000  1.0000
  Se  Se2       1.0  0.25000  0.25000  0.73000  1.0000
