data_image0
_chemical_formula_structural       B14Cl2Mg6O26
_chemical_formula_sum              "B14 Cl2 Mg6 O26"
_cell_length_a       8.50388
_cell_length_b       8.50388
_cell_length_c       8.50388
_cell_angle_alpha    120
_cell_angle_beta     90
_cell_angle_gamma    120

_space_group_name_H-M_alt    "P 1"
_space_group_IT_number       1

loop_
  _space_group_symop_operation_xyz
  'x, y, z'

loop_
  _atom_site_type_symbol
  _atom_site_label
  _atom_site_symmetry_multiplicity
  _atom_site_fract_x
  _atom_site_fract_y
  _atom_site_fract_z
  _atom_site_occupancy
  B   B1        1.0  0.92000  0.16100  0.08050  1.0000
  B   B2        1.0  0.24100  0.16100  0.08050  1.0000
  B   B3        1.0  0.92000  0.83900  0.08050  1.0000
  B   B4        1.0  0.75000  0.00000  0.25000  1.0000
  B   B5        1.0  0.25000  0.00000  0.25000  1.0000
  B   B6        1.0  0.25000  0.50000  0.25000  1.0000
  B   B7        1.0  0.42000  0.83900  0.25900  1.0000
  B   B8        1.0  0.74100  0.16100  0.58000  1.0000
  B   B9        1.0  0.42000  0.83900  0.58000  1.0000
  B   B10       1.0  0.42000  0.16100  0.58000  1.0000
  B   B11       1.0  0.75000  0.00000  0.75000  1.0000
  B   B12       1.0  0.25000  0.00000  0.75000  1.0000
  B   B13       1.0  0.75000  0.50000  0.75000  1.0000
  B   B14       1.0  0.92000  0.83900  0.75900  1.0000
  Cl  Cl1       1.0  0.75000  0.50000  0.25000  1.0000
  Cl  Cl2       1.0  0.25000  0.50000  0.75000  1.0000
  Mg  Mg1       1.0  0.50000  0.00000  0.00000  1.0000
  Mg  Mg2       1.0  0.00000  0.50000  0.00000  1.0000
  Mg  Mg3       1.0  0.50000  0.50000  0.00000  1.0000
  Mg  Mg4       1.0  0.00000  0.00000  0.50000  1.0000
  Mg  Mg5       1.0  0.00000  0.50000  0.50000  1.0000
  Mg  Mg6       1.0  0.50000  0.50000  0.50000  1.0000
  O   O1        1.0  0.00000  0.00000  0.00000  1.0000
  O   O2        1.0  0.74000  0.80200  0.10100  1.0000
  O   O3        1.0  0.29900  0.03850  0.10100  1.0000
  O   O4        1.0  0.06280  0.36200  0.10100  1.0000
  O   O5        1.0  0.56300  0.96100  0.20100  1.0000
  O   O6        1.0  0.39900  0.63800  0.20100  1.0000
  O   O7        1.0  0.24000  0.80200  0.20100  1.0000
  O   O8        1.0  0.89900  0.19800  0.26000  1.0000
  O   O9        1.0  0.06280  0.96100  0.26000  1.0000
  O   O10       1.0  0.29900  0.36200  0.26000  1.0000
  O   O11       1.0  0.79900  0.03850  0.43700  1.0000
  O   O12       1.0  0.24000  0.63800  0.43700  1.0000
  O   O13       1.0  0.39900  0.19800  0.43700  1.0000
  O   O14       1.0  0.50000  0.00000  0.50000  1.0000
  O   O15       1.0  0.24000  0.03850  0.60100  1.0000
  O   O16       1.0  0.56300  0.80200  0.60100  1.0000
  O   O17       1.0  0.79900  0.36200  0.60100  1.0000
  O   O18       1.0  0.89900  0.96100  0.70100  1.0000
  O   O19       1.0  0.74000  0.63800  0.70100  1.0000
  O   O20       1.0  0.06280  0.80200  0.70100  1.0000
  O   O21       1.0  0.79900  0.19800  0.76000  1.0000
  O   O22       1.0  0.56300  0.36200  0.76000  1.0000
  O   O23       1.0  0.39900  0.96100  0.76000  1.0000
  O   O24       1.0  0.74000  0.03850  0.93700  1.0000
  O   O25       1.0  0.89900  0.63800  0.93700  1.0000
  O   O26       1.0  0.29900  0.19800  0.93700  1.0000
