data_image0
_chemical_formula_structural       Ag4Br4C6H24N12S6
_chemical_formula_sum              "Ag4 Br4 C6 H24 N12 S6"
_cell_length_a       4.08981
_cell_length_b       8.27864
_cell_length_c       20.7755
_cell_angle_alpha    90
_cell_angle_beta     94.7999
_cell_angle_gamma    90

_space_group_name_H-M_alt    "P 1"
_space_group_IT_number       1

loop_
  _space_group_symop_operation_xyz
  'x, y, z'

loop_
  _atom_site_type_symbol
  _atom_site_label
  _atom_site_symmetry_multiplicity
  _atom_site_fract_x
  _atom_site_fract_y
  _atom_site_fract_z
  _atom_site_occupancy
  Ag  Ag1       1.0  0.51600  0.44200  0.17700  1.0000
  Ag  Ag2       1.0  0.48400  0.44200  0.32300  1.0000
  Ag  Ag3       1.0  0.51600  0.55800  0.67700  1.0000
  Ag  Ag4       1.0  0.48400  0.55800  0.82300  1.0000
  Br  Br1       1.0  0.44500  0.23900  0.07440  1.0000
  Br  Br2       1.0  0.55500  0.23900  0.42600  1.0000
  Br  Br3       1.0  0.44500  0.76100  0.57400  1.0000
  Br  Br4       1.0  0.55500  0.76100  0.92600  1.0000
  C   C1        1.0  0.08190  0.73500  0.09470  1.0000
  C   C2        1.0  0.00000  0.12500  0.25000  1.0000
  C   C3        1.0  0.91800  0.73500  0.40500  1.0000
  C   C4        1.0  0.08190  0.26500  0.59500  1.0000
  C   C5        1.0  0.00000  0.87500  0.75000  1.0000
  C   C6        1.0  0.91800  0.26500  0.90500  1.0000
  H   H1        1.0  0.81900  0.61500  0.02080  1.0000
  H   H2        1.0  0.84800  0.88600  0.02770  1.0000
  H   H3        1.0  0.02400  0.49100  0.08050  1.0000
  H   H4        1.0  0.09930  0.98300  0.08860  1.0000
  H   H5        1.0  0.69800  0.10800  0.16700  1.0000
  H   H6        1.0  0.80500  0.92300  0.20300  1.0000
  H   H7        1.0  0.19500  0.92300  0.29700  1.0000
  H   H8        1.0  0.30200  0.10800  0.33300  1.0000
  H   H9        1.0  0.90100  0.98300  0.41100  1.0000
  H   H10       1.0  0.97600  0.49100  0.42000  1.0000
  H   H11       1.0  0.15200  0.88600  0.47200  1.0000
  H   H12       1.0  0.18100  0.61500  0.47900  1.0000
  H   H13       1.0  0.81900  0.38500  0.52100  1.0000
  H   H14       1.0  0.84800  0.11400  0.52800  1.0000
  H   H15       1.0  0.02400  0.50900  0.58000  1.0000
  H   H16       1.0  0.09930  0.01700  0.58900  1.0000
  H   H17       1.0  0.69800  0.89200  0.66700  1.0000
  H   H18       1.0  0.80500  0.07730  0.70300  1.0000
  H   H19       1.0  0.19500  0.07730  0.79700  1.0000
  H   H20       1.0  0.30200  0.89200  0.83300  1.0000
  H   H21       1.0  0.90100  0.01700  0.91100  1.0000
  H   H22       1.0  0.97600  0.50900  0.92000  1.0000
  H   H23       1.0  0.15200  0.11400  0.97200  1.0000
  H   H24       1.0  0.18100  0.38500  0.97900  1.0000
  N   N1        1.0  0.96900  0.60400  0.06260  1.0000
  N   N2        1.0  0.99600  0.87900  0.06980  1.0000
  N   N3        1.0  0.82300  0.04590  0.20400  1.0000
  N   N4        1.0  0.17700  0.04590  0.29600  1.0000
  N   N5        1.0  0.00449  0.87900  0.43000  1.0000
  N   N6        1.0  0.03070  0.60400  0.43700  1.0000
  N   N7        1.0  0.96900  0.39600  0.56300  1.0000
  N   N8        1.0  0.99600  0.12100  0.57000  1.0000
  N   N9        1.0  0.82300  0.95400  0.70400  1.0000
  N   N10       1.0  0.17700  0.95400  0.79600  1.0000
  N   N11       1.0  0.00449  0.12100  0.93000  1.0000
  N   N12       1.0  0.03070  0.39600  0.93700  1.0000
  S   S1        1.0  0.31800  0.72300  0.16700  1.0000
  S   S2        1.0  0.00000  0.33500  0.25000  1.0000
  S   S3        1.0  0.68200  0.72300  0.33300  1.0000
  S   S4        1.0  0.31800  0.27700  0.66700  1.0000
  S   S5        1.0  0.00000  0.66500  0.75000  1.0000
  S   S6        1.0  0.68200  0.27700  0.83300  1.0000
