data_image0
_chemical_formula_structural       Bi4Tm2
_chemical_formula_sum              "Bi4 Tm2"
_cell_length_a       8.07401
_cell_length_b       6.93258
_cell_length_c       3.58274
_cell_angle_alpha    90
_cell_angle_beta     90
_cell_angle_gamma    90

_space_group_name_H-M_alt    "P 1"
_space_group_IT_number       1

loop_
  _space_group_symop_operation_xyz
  'x, y, z'

loop_
  _atom_site_type_symbol
  _atom_site_label
  _atom_site_symmetry_multiplicity
  _atom_site_fract_x
  _atom_site_fract_y
  _atom_site_fract_z
  _atom_site_occupancy
  Bi  Bi1       1.0  0.13600  0.34600  0.00000  1.0000
  Bi  Bi2       1.0  0.86400  0.65400  0.00000  1.0000
  Bi  Bi3       1.0  0.63600  0.15400  0.50000  1.0000
  Bi  Bi4       1.0  0.36400  0.84600  0.50000  1.0000
  Tm  Tm1       1.0  0.50000  0.50000  0.00000  1.0000
  Tm  Tm2       1.0  0.00000  0.00000  0.50000  1.0000
