data_image0
_chemical_formula_structural       Be2Hf2Si2
_chemical_formula_sum              "Be2 Hf2 Si2"
_cell_length_a       3.70414
_cell_length_b       3.704
_cell_length_c       7.13915
_cell_angle_alpha    90
_cell_angle_beta     90
_cell_angle_gamma    120.001

_space_group_name_H-M_alt    "P 1"
_space_group_IT_number       1

loop_
  _space_group_symop_operation_xyz
  'x, y, z'

loop_
  _atom_site_type_symbol
  _atom_site_label
  _atom_site_symmetry_multiplicity
  _atom_site_fract_x
  _atom_site_fract_y
  _atom_site_fract_z
  _atom_site_occupancy
  Be  Be1       1.0  0.33300  0.66700  0.25000  1.0000
  Be  Be2       1.0  0.66700  0.33300  0.75000  1.0000
  Hf  Hf1       1.0  0.00000  0.00000  0.00000  1.0000
  Hf  Hf2       1.0  0.00000  0.00000  0.50000  1.0000
  Si  Si1       1.0  0.66700  0.33300  0.25000  1.0000
  Si  Si2       1.0  0.33300  0.66700  0.75000  1.0000
