data_image0
_chemical_formula_structural       Dy2Ge2H2O8
_chemical_formula_sum              "Dy2 Ge2 H2 O8"
_cell_length_a       5.20744
_cell_length_b       6.4772
_cell_length_c       4.54265
_cell_angle_alpha    90
_cell_angle_beta     97.933
_cell_angle_gamma    90

_space_group_name_H-M_alt    "P 1"
_space_group_IT_number       1

loop_
  _space_group_symop_operation_xyz
  'x, y, z'

loop_
  _atom_site_type_symbol
  _atom_site_label
  _atom_site_symmetry_multiplicity
  _atom_site_fract_x
  _atom_site_fract_y
  _atom_site_fract_z
  _atom_site_occupancy
  Dy  Dy1       1.0  0.20800  0.25000  0.05390  1.0000
  Dy  Dy2       1.0  0.79200  0.75000  0.94600  1.0000
  Ge  Ge1       1.0  0.31600  0.75000  0.43700  1.0000
  Ge  Ge2       1.0  0.68400  0.25000  0.56300  1.0000
  H   H1        1.0  0.00000  0.00000  0.50000  1.0000
  H   H2        1.0  0.00000  0.50000  0.50000  1.0000
  O   O1        1.0  0.65600  0.25000  0.17400  1.0000
  O   O2        1.0  0.09960  0.54700  0.28300  1.0000
  O   O3        1.0  0.09960  0.95300  0.28300  1.0000
  O   O4        1.0  0.63500  0.75000  0.37700  1.0000
  O   O5        1.0  0.36500  0.25000  0.62300  1.0000
  O   O6        1.0  0.90000  0.04720  0.71700  1.0000
  O   O7        1.0  0.90000  0.45300  0.71700  1.0000
  O   O8        1.0  0.34400  0.75000  0.82600  1.0000
