data_image0
_chemical_formula_structural       Be5Zr
_chemical_formula_sum              "Be5 Zr1"
_cell_length_a       4.56537
_cell_length_b       4.56537
_cell_length_c       3.45306
_cell_angle_alpha    90
_cell_angle_beta     90
_cell_angle_gamma    119.998

_space_group_name_H-M_alt    "P 1"
_space_group_IT_number       1

loop_
  _space_group_symop_operation_xyz
  'x, y, z'

loop_
  _atom_site_type_symbol
  _atom_site_label
  _atom_site_symmetry_multiplicity
  _atom_site_fract_x
  _atom_site_fract_y
  _atom_site_fract_z
  _atom_site_occupancy
  Be  Be1       1.0  0.66700  0.33300  0.00000  1.0000
  Be  Be2       1.0  0.33300  0.66700  0.00000  1.0000
  Be  Be3       1.0  0.50000  0.00002  0.50000  1.0000
  Be  Be4       1.0  0.50000  0.50000  0.50000  1.0000
  Be  Be5       1.0  0.00001  0.50000  0.50000  1.0000
  Zr  Zr1       1.0  0.00003  0.00003  0.00000  1.0000
