data_image0
_chemical_formula_structural       Cu2Pb2Tm2
_chemical_formula_sum              "Cu2 Pb2 Tm2"
_cell_length_a       4.58222
_cell_length_b       4.58214
_cell_length_c       7.2606
_cell_angle_alpha    90
_cell_angle_beta     90
_cell_angle_gamma    120.001

_space_group_name_H-M_alt    "P 1"
_space_group_IT_number       1

loop_
  _space_group_symop_operation_xyz
  'x, y, z'

loop_
  _atom_site_type_symbol
  _atom_site_label
  _atom_site_symmetry_multiplicity
  _atom_site_fract_x
  _atom_site_fract_y
  _atom_site_fract_z
  _atom_site_occupancy
  Cu  Cu1       1.0  0.66700  0.33300  0.32300  1.0000
  Cu  Cu2       1.0  0.33300  0.66700  0.82300  1.0000
  Pb  Pb1       1.0  0.33300  0.66700  0.22600  1.0000
  Pb  Pb2       1.0  0.66700  0.33300  0.72600  1.0000
  Tm  Tm1       1.0  0.00000  0.00000  0.99700  1.0000
  Tm  Tm2       1.0  0.00001  0.00002  0.49700  1.0000
