data_image0
_chemical_formula_structural       Co2Ni2O2S2
_chemical_formula_sum              "Co2 Ni2 O2 S2"
_cell_length_a       3.30792
_cell_length_b       3.30779
_cell_length_c       11.4152
_cell_angle_alpha    90
_cell_angle_beta     90
_cell_angle_gamma    120.001

_space_group_name_H-M_alt    "P 1"
_space_group_IT_number       1

loop_
  _space_group_symop_operation_xyz
  'x, y, z'

loop_
  _atom_site_type_symbol
  _atom_site_label
  _atom_site_symmetry_multiplicity
  _atom_site_fract_x
  _atom_site_fract_y
  _atom_site_fract_z
  _atom_site_occupancy
  Co  Co1       1.0  0.33400  0.66700  0.27000  1.0000
  Co  Co2       1.0  0.66600  0.33300  0.77000  1.0000
  Ni  Ni1       1.0  0.99900  0.99800  0.49700  1.0000
  Ni  Ni2       1.0  0.00084  0.00168  0.99700  1.0000
  O   O1        1.0  0.00028  0.00057  0.32600  1.0000
  O   O2        1.0  0.00000  0.99900  0.82600  1.0000
  S   S1        1.0  0.66800  0.33600  0.09590  1.0000
  S   S2        1.0  0.33200  0.66400  0.59600  1.0000
