data_image0
_chemical_formula_structural       Be8Cu8O8Se8
_chemical_formula_sum              "Be8 Cu8 O8 Se8"
_cell_length_a       7.48524
_cell_length_b       11.4567
_cell_length_c       5.56515
_cell_angle_alpha    90
_cell_angle_beta     90
_cell_angle_gamma    90

_space_group_name_H-M_alt    "P 1"
_space_group_IT_number       1

loop_
  _space_group_symop_operation_xyz
  'x, y, z'

loop_
  _atom_site_type_symbol
  _atom_site_label
  _atom_site_symmetry_multiplicity
  _atom_site_fract_x
  _atom_site_fract_y
  _atom_site_fract_z
  _atom_site_occupancy
  Be  Be1       1.0  0.62800  0.21300  0.23300  1.0000
  Be  Be2       1.0  0.87200  0.71300  0.23300  1.0000
  Be  Be3       1.0  0.12800  0.21300  0.26700  1.0000
  Be  Be4       1.0  0.37200  0.71300  0.26700  1.0000
  Be  Be5       1.0  0.62800  0.28700  0.73300  1.0000
  Be  Be6       1.0  0.87200  0.78700  0.73300  1.0000
  Be  Be7       1.0  0.12800  0.28700  0.76700  1.0000
  Be  Be8       1.0  0.37200  0.78700  0.76700  1.0000
  Cu  Cu1       1.0  0.27500  0.42300  0.07660  1.0000
  Cu  Cu2       1.0  0.22500  0.92300  0.07660  1.0000
  Cu  Cu3       1.0  0.77500  0.42300  0.42300  1.0000
  Cu  Cu4       1.0  0.72500  0.92300  0.42300  1.0000
  Cu  Cu5       1.0  0.27500  0.07680  0.57700  1.0000
  Cu  Cu6       1.0  0.22500  0.57700  0.57700  1.0000
  Cu  Cu7       1.0  0.77500  0.07680  0.92300  1.0000
  Cu  Cu8       1.0  0.72500  0.57700  0.92300  1.0000
  O   O1        1.0  0.17000  0.26200  0.02570  1.0000
  O   O2        1.0  0.33000  0.76200  0.02570  1.0000
  O   O3        1.0  0.67000  0.26200  0.47400  1.0000
  O   O4        1.0  0.83000  0.76200  0.47400  1.0000
  O   O5        1.0  0.17000  0.23800  0.52600  1.0000
  O   O6        1.0  0.33000  0.73800  0.52600  1.0000
  O   O7        1.0  0.67000  0.23800  0.97400  1.0000
  O   O8        1.0  0.83000  0.73800  0.97400  1.0000
  Se  Se1       1.0  0.49000  0.02620  0.24600  1.0000
  Se  Se2       1.0  0.00977  0.52600  0.24600  1.0000
  Se  Se3       1.0  0.99000  0.02620  0.25400  1.0000
  Se  Se4       1.0  0.51000  0.52600  0.25400  1.0000
  Se  Se5       1.0  0.49000  0.47400  0.74600  1.0000
  Se  Se6       1.0  0.00977  0.97400  0.74600  1.0000
  Se  Se7       1.0  0.99000  0.47400  0.75400  1.0000
  Se  Se8       1.0  0.51000  0.97400  0.75400  1.0000
