data_image0
_chemical_formula_structural       CoKNi
_chemical_formula_sum              "Co1 K1 Ni1"
_cell_length_a       4.06616
_cell_length_b       4.06616
_cell_length_c       4.06616
_cell_angle_alpha    75.5589
_cell_angle_beta     75.5589
_cell_angle_gamma    75.5589

_space_group_name_H-M_alt    "P 1"
_space_group_IT_number       1

loop_
  _space_group_symop_operation_xyz
  'x, y, z'

loop_
  _atom_site_type_symbol
  _atom_site_label
  _atom_site_symmetry_multiplicity
  _atom_site_fract_x
  _atom_site_fract_y
  _atom_site_fract_z
  _atom_site_occupancy
  Co  Co1       1.0  0.37500  0.37500  0.37500  1.0000
  K   K1        1.0  0.99300  0.99300  0.99300  1.0000
  Ni  Ni1       1.0  0.63100  0.63100  0.63100  1.0000
