data_image0
_chemical_formula_structural       Cu2O2Te2Zn2
_chemical_formula_sum              "Cu2 O2 Te2 Zn2"
_cell_length_a       3.2932
_cell_length_b       6.01669
_cell_length_c       6.74167
_cell_angle_alpha    90
_cell_angle_beta     75.863
_cell_angle_gamma    90

_space_group_name_H-M_alt    "P 1"
_space_group_IT_number       1

loop_
  _space_group_symop_operation_xyz
  'x, y, z'

loop_
  _atom_site_type_symbol
  _atom_site_label
  _atom_site_symmetry_multiplicity
  _atom_site_fract_x
  _atom_site_fract_y
  _atom_site_fract_z
  _atom_site_occupancy
  Cu  Cu1       1.0  0.42900  0.75000  0.14200  1.0000
  Cu  Cu2       1.0  0.57100  0.25000  0.85800  1.0000
  O   O1        1.0  0.00000  0.00000  0.00000  1.0000
  O   O2        1.0  0.00000  0.50000  0.00000  1.0000
  Te  Te1       1.0  0.76200  0.75000  0.47600  1.0000
  Te  Te2       1.0  0.23800  0.25000  0.52400  1.0000
  Zn  Zn1       1.0  0.90500  0.25000  0.18900  1.0000
  Zn  Zn2       1.0  0.09470  0.75000  0.81100  1.0000
