data_image0
_chemical_formula_structural       C8H20N8Ni2O10Sr2
_chemical_formula_sum              "C8 H20 N8 Ni2 O10 Sr2"
_cell_length_a       6.84921
_cell_length_b       9.04198
_cell_length_c       9.04198
_cell_angle_alpha    111.502
_cell_angle_beta     94.8546
_cell_angle_gamma    94.8546

_space_group_name_H-M_alt    "P 1"
_space_group_IT_number       1

loop_
  _space_group_symop_operation_xyz
  'x, y, z'

loop_
  _atom_site_type_symbol
  _atom_site_label
  _atom_site_symmetry_multiplicity
  _atom_site_fract_x
  _atom_site_fract_y
  _atom_site_fract_z
  _atom_site_occupancy
  C   C1        1.0  0.00000  0.87900  0.12100  1.0000
  C   C2        1.0  0.50000  0.87800  0.12200  1.0000
  C   C3        1.0  0.95700  0.17200  0.17200  1.0000
  C   C4        1.0  0.47000  0.17300  0.17300  1.0000
  C   C5        1.0  0.53000  0.82700  0.82700  1.0000
  C   C6        1.0  0.04290  0.82800  0.82800  1.0000
  C   C7        1.0  0.50000  0.12200  0.87800  1.0000
  C   C8        1.0  0.00000  0.12100  0.87900  1.0000
  H   H1        1.0  0.23400  0.53200  0.05390  1.0000
  H   H2        1.0  0.14700  0.38000  0.07580  1.0000
  H   H3        1.0  0.59100  0.44300  0.17000  1.0000
  H   H4        1.0  0.61500  0.61800  0.17200  1.0000
  H   H5        1.0  0.14700  0.07580  0.38000  1.0000
  H   H6        1.0  0.38500  0.82800  0.38200  1.0000
  H   H7        1.0  0.32400  0.41300  0.41300  1.0000
  H   H8        1.0  0.64300  0.42900  0.42900  1.0000
  H   H9        1.0  0.59100  0.17000  0.44300  1.0000
  H   H10       1.0  0.76600  0.94600  0.46800  1.0000
  H   H11       1.0  0.23400  0.05390  0.53200  1.0000
  H   H12       1.0  0.40900  0.83000  0.55700  1.0000
  H   H13       1.0  0.35700  0.57100  0.57100  1.0000
  H   H14       1.0  0.67600  0.58700  0.58700  1.0000
  H   H15       1.0  0.61500  0.17200  0.61800  1.0000
  H   H16       1.0  0.85300  0.92400  0.62000  1.0000
  H   H17       1.0  0.38500  0.38200  0.82800  1.0000
  H   H18       1.0  0.40900  0.55700  0.83000  1.0000
  H   H19       1.0  0.85300  0.62000  0.92400  1.0000
  H   H20       1.0  0.76600  0.46800  0.94600  1.0000
  N   N1        1.0  0.00000  0.80100  0.19900  1.0000
  N   N2        1.0  0.50000  0.79900  0.20100  1.0000
  N   N3        1.0  0.93800  0.28400  0.28400  1.0000
  N   N4        1.0  0.46200  0.28700  0.28700  1.0000
  N   N5        1.0  0.53800  0.71300  0.71300  1.0000
  N   N6        1.0  0.06200  0.71600  0.71600  1.0000
  N   N7        1.0  0.50000  0.20100  0.79900  1.0000
  N   N8        1.0  0.00000  0.19900  0.80100  1.0000
  Ni  Ni1       1.0  0.00000  0.00000  0.00000  1.0000
  Ni  Ni2       1.0  0.50000  0.00000  0.00000  1.0000
  O   O1        1.0  0.19600  0.49300  0.13700  1.0000
  O   O2        1.0  0.68700  0.52400  0.15800  1.0000
  O   O3        1.0  0.31300  0.84200  0.47600  1.0000
  O   O4        1.0  0.25400  0.49100  0.49100  1.0000
  O   O5        1.0  0.19600  0.13700  0.49300  1.0000
  O   O6        1.0  0.80400  0.86300  0.50700  1.0000
  O   O7        1.0  0.74600  0.50900  0.50900  1.0000
  O   O8        1.0  0.68700  0.15800  0.52400  1.0000
  O   O9        1.0  0.31300  0.47600  0.84200  1.0000
  O   O10       1.0  0.80400  0.50700  0.86300  1.0000
  Sr  Sr1       1.0  0.00000  0.62700  0.37300  1.0000
  Sr  Sr2       1.0  0.00000  0.37300  0.62700  1.0000
