data_image0
_chemical_formula_structural       C12H24N8O8
_chemical_formula_sum              "C12 H24 N8 O8"
_cell_length_a       9.07309
_cell_length_b       6.61654
_cell_length_c       7.16399
_cell_angle_alpha    90
_cell_angle_beta     90.6024
_cell_angle_gamma    90

_space_group_name_H-M_alt    "P 1"
_space_group_IT_number       1

loop_
  _space_group_symop_operation_xyz
  'x, y, z'

loop_
  _atom_site_type_symbol
  _atom_site_label
  _atom_site_symmetry_multiplicity
  _atom_site_fract_x
  _atom_site_fract_y
  _atom_site_fract_z
  _atom_site_occupancy
  C   C1        1.0  0.25300  0.44700  0.07810  1.0000
  C   C2        1.0  0.09930  0.15400  0.14200  1.0000
  C   C3        1.0  0.59900  0.10300  0.17600  1.0000
  C   C4        1.0  0.40100  0.60300  0.32400  1.0000
  C   C5        1.0  0.90100  0.65400  0.35800  1.0000
  C   C6        1.0  0.74700  0.94700  0.42200  1.0000
  C   C7        1.0  0.25300  0.05260  0.57800  1.0000
  C   C8        1.0  0.09930  0.34600  0.64200  1.0000
  C   C9        1.0  0.59900  0.39700  0.67600  1.0000
  C   C10       1.0  0.40100  0.89700  0.82400  1.0000
  C   C11       1.0  0.90100  0.84600  0.85800  1.0000
  C   C12       1.0  0.74700  0.55300  0.92200  1.0000
  H   H1        1.0  0.15500  0.50000  0.00098  1.0000
  H   H2        1.0  0.64900  0.54000  0.00840  1.0000
  H   H3        1.0  0.60200  0.20100  0.05220  1.0000
  H   H4        1.0  0.32500  0.15000  0.15900  1.0000
  H   H5        1.0  0.10000  0.99200  0.18200  1.0000
  H   H6        1.0  0.82400  0.13800  0.20000  1.0000
  H   H7        1.0  0.17600  0.63800  0.30000  1.0000
  H   H8        1.0  0.90000  0.49200  0.31800  1.0000
  H   H9        1.0  0.67500  0.65000  0.34100  1.0000
  H   H10       1.0  0.39800  0.70100  0.44800  1.0000
  H   H11       1.0  0.35100  0.04000  0.49200  1.0000
  H   H12       1.0  0.84500  0.00000  0.49900  1.0000
  H   H13       1.0  0.15500  0.00000  0.50100  1.0000
  H   H14       1.0  0.64900  0.96000  0.50800  1.0000
  H   H15       1.0  0.60200  0.29900  0.55200  1.0000
  H   H16       1.0  0.32500  0.35000  0.65900  1.0000
  H   H17       1.0  0.10000  0.50800  0.68200  1.0000
  H   H18       1.0  0.82400  0.36200  0.70000  1.0000
  H   H19       1.0  0.17600  0.86200  0.80000  1.0000
  H   H20       1.0  0.90000  0.00752  0.81800  1.0000
  H   H21       1.0  0.67500  0.85000  0.84100  1.0000
  H   H22       1.0  0.39800  0.79900  0.94800  1.0000
  H   H23       1.0  0.35100  0.46000  0.99200  1.0000
  H   H24       1.0  0.84500  0.50000  0.99900  1.0000
  N   N1        1.0  0.23200  0.23600  0.12600  1.0000
  N   N2        1.0  0.27000  0.57600  0.24100  1.0000
  N   N3        1.0  0.73000  0.07610  0.25900  1.0000
  N   N4        1.0  0.76800  0.73600  0.37400  1.0000
  N   N5        1.0  0.23200  0.26400  0.62600  1.0000
  N   N6        1.0  0.27000  0.92400  0.74100  1.0000
  N   N7        1.0  0.73000  0.42400  0.75900  1.0000
  N   N8        1.0  0.76800  0.76400  0.87400  1.0000
  O   O1        1.0  0.98000  0.24600  0.11400  1.0000
  O   O2        1.0  0.48100  0.02500  0.23100  1.0000
  O   O3        1.0  0.51900  0.52500  0.26900  1.0000
  O   O4        1.0  0.01990  0.74600  0.38600  1.0000
  O   O5        1.0  0.98000  0.25400  0.61400  1.0000
  O   O6        1.0  0.48100  0.47500  0.73100  1.0000
  O   O7        1.0  0.51900  0.97500  0.76900  1.0000
  O   O8        1.0  0.01990  0.75400  0.88600  1.0000
