data_image0
_chemical_formula_structural       C10H24N4O10S4
_chemical_formula_sum              "C10 H24 N4 O10 S4"
_cell_length_a       5.74768
_cell_length_b       6.96238
_cell_length_c       12.4723
_cell_angle_alpha    75.6481
_cell_angle_beta     88.1879
_cell_angle_gamma    86.8297

_space_group_name_H-M_alt    "P 1"
_space_group_IT_number       1

loop_
  _space_group_symop_operation_xyz
  'x, y, z'

loop_
  _atom_site_type_symbol
  _atom_site_label
  _atom_site_symmetry_multiplicity
  _atom_site_fract_x
  _atom_site_fract_y
  _atom_site_fract_z
  _atom_site_occupancy
  C   C1        1.0  0.86800  0.72600  0.08550  1.0000
  C   C2        1.0  0.46400  0.23400  0.20300  1.0000
  C   C3        1.0  0.34900  0.61700  0.31400  1.0000
  C   C4        1.0  0.98700  0.76000  0.38200  1.0000
  C   C5        1.0  0.37000  0.77700  0.46300  1.0000
  C   C6        1.0  0.63000  0.22300  0.53700  1.0000
  C   C7        1.0  0.01260  0.24000  0.61800  1.0000
  C   C8        1.0  0.65100  0.38300  0.68600  1.0000
  C   C9        1.0  0.53600  0.76600  0.79700  1.0000
  C   C10       1.0  0.13200  0.27400  0.91500  1.0000
  H   H1        1.0  0.84200  0.83700  0.00656  1.0000
  H   H2        1.0  0.82000  0.57900  0.07890  1.0000
  H   H3        1.0  0.48100  0.30800  0.11500  1.0000
  H   H4        1.0  0.77500  0.77000  0.15400  1.0000
  H   H5        1.0  0.46100  0.07290  0.21400  1.0000
  H   H6        1.0  0.60000  0.27700  0.25100  1.0000
  H   H7        1.0  0.95000  0.91300  0.33300  1.0000
  H   H8        1.0  0.89400  0.65700  0.34800  1.0000
  H   H9        1.0  0.36200  0.94000  0.44300  1.0000
  H   H10       1.0  0.70900  0.27800  0.45400  1.0000
  H   H11       1.0  0.54900  0.71900  0.46200  1.0000
  H   H12       1.0  0.92900  0.74800  0.46700  1.0000
  H   H13       1.0  0.07130  0.25200  0.53300  1.0000
  H   H14       1.0  0.45100  0.28100  0.53800  1.0000
  H   H15       1.0  0.29100  0.72200  0.54600  1.0000
  H   H16       1.0  0.63800  0.05970  0.55700  1.0000
  H   H17       1.0  0.10600  0.34300  0.65200  1.0000
  H   H18       1.0  0.05020  0.08740  0.66700  1.0000
  H   H19       1.0  0.40000  0.72300  0.74900  1.0000
  H   H20       1.0  0.53900  0.92700  0.78600  1.0000
  H   H21       1.0  0.22500  0.23000  0.84600  1.0000
  H   H22       1.0  0.51900  0.69200  0.88500  1.0000
  H   H23       1.0  0.18000  0.42100  0.92100  1.0000
  H   H24       1.0  0.15800  0.16300  0.99300  1.0000
  N   N1        1.0  0.19600  0.55600  0.23700  1.0000
  N   N2        1.0  0.23700  0.71000  0.38300  1.0000
  N   N3        1.0  0.76300  0.29000  0.61700  1.0000
  N   N4        1.0  0.80400  0.44400  0.76300  1.0000
  O   O1        1.0  0.29200  0.62700  0.02900  1.0000
  O   O2        1.0  0.24000  0.90000  0.12500  1.0000
  O   O3        1.0  0.00843  0.27700  0.18300  1.0000
  O   O4        1.0  0.56100  0.57600  0.31100  1.0000
  O   O5        1.0  0.17500  0.22900  0.37000  1.0000
  O   O6        1.0  0.82500  0.77100  0.63000  1.0000
  O   O7        1.0  0.43900  0.42400  0.68900  1.0000
  O   O8        1.0  0.99200  0.72300  0.81700  1.0000
  O   O9        1.0  0.76000  0.09980  0.87500  1.0000
  O   O10       1.0  0.70800  0.37300  0.97100  1.0000
  S   S1        1.0  0.16800  0.71400  0.10900  1.0000
  S   S2        1.0  0.19200  0.30700  0.25200  1.0000
  S   S3        1.0  0.80800  0.69300  0.74800  1.0000
  S   S4        1.0  0.83200  0.28600  0.89100  1.0000
