data_image0
_chemical_formula_structural       C4H20Mn4O16P4
_chemical_formula_sum              "C4 H20 Mn4 O16 P4"
_cell_length_a       16.6599
_cell_length_b       4.79746
_cell_length_c       5.75499
_cell_angle_alpha    90
_cell_angle_beta     90
_cell_angle_gamma    90

_space_group_name_H-M_alt    "P 1"
_space_group_IT_number       1

loop_
  _space_group_symop_operation_xyz
  'x, y, z'

loop_
  _atom_site_type_symbol
  _atom_site_label
  _atom_site_symmetry_multiplicity
  _atom_site_fract_x
  _atom_site_fract_y
  _atom_site_fract_z
  _atom_site_occupancy
  C   C1        1.0  0.46100  0.19900  0.27200  1.0000
  C   C2        1.0  0.96100  0.30100  0.27200  1.0000
  C   C3        1.0  0.03910  0.69900  0.77200  1.0000
  C   C4        1.0  0.53900  0.80100  0.77200  1.0000
  H   H1        1.0  0.98600  0.21500  0.11100  1.0000
  H   H2        1.0  0.48600  0.28500  0.11100  1.0000
  H   H3        1.0  0.64600  0.21100  0.14900  1.0000
  H   H4        1.0  0.14600  0.28900  0.14900  1.0000
  H   H5        1.0  0.97100  0.52700  0.27600  1.0000
  H   H6        1.0  0.47100  0.97300  0.27600  1.0000
  H   H7        1.0  0.99100  0.20200  0.41900  1.0000
  H   H8        1.0  0.49100  0.29800  0.41900  1.0000
  H   H9        1.0  0.64600  0.21400  0.42000  1.0000
  H   H10       1.0  0.14600  0.28600  0.42000  1.0000
  H   H11       1.0  0.51400  0.71500  0.61100  1.0000
  H   H12       1.0  0.01400  0.78500  0.61100  1.0000
  H   H13       1.0  0.85400  0.71100  0.64900  1.0000
  H   H14       1.0  0.35400  0.78900  0.64900  1.0000
  H   H15       1.0  0.52900  0.02690  0.77600  1.0000
  H   H16       1.0  0.02860  0.47300  0.77600  1.0000
  H   H17       1.0  0.50900  0.70200  0.91900  1.0000
  H   H18       1.0  0.00904  0.79800  0.91900  1.0000
  H   H19       1.0  0.85400  0.71400  0.92000  1.0000
  H   H20       1.0  0.35400  0.78600  0.92000  1.0000
  Mn  Mn1       1.0  0.73500  0.66700  0.28100  1.0000
  Mn  Mn2       1.0  0.23500  0.83300  0.28100  1.0000
  Mn  Mn3       1.0  0.76500  0.16700  0.78100  1.0000
  Mn  Mn4       1.0  0.26500  0.33300  0.78100  1.0000
  O   O1        1.0  0.31700  0.11700  0.06670  1.0000
  O   O2        1.0  0.81700  0.38300  0.06670  1.0000
  O   O3        1.0  0.34100  0.57800  0.28100  1.0000
  O   O4        1.0  0.84100  0.92200  0.28100  1.0000
  O   O5        1.0  0.14300  0.16200  0.28400  1.0000
  O   O6        1.0  0.64300  0.33800  0.28400  1.0000
  O   O7        1.0  0.31900  0.11700  0.49900  1.0000
  O   O8        1.0  0.81900  0.38300  0.49900  1.0000
  O   O9        1.0  0.18300  0.61700  0.56700  1.0000
  O   O10       1.0  0.68300  0.88300  0.56700  1.0000
  O   O11       1.0  0.15900  0.07810  0.78100  1.0000
  O   O12       1.0  0.65900  0.42200  0.78100  1.0000
  O   O13       1.0  0.35700  0.66200  0.78400  1.0000
  O   O14       1.0  0.85700  0.83800  0.78400  1.0000
  O   O15       1.0  0.18100  0.61700  0.99900  1.0000
  O   O16       1.0  0.68100  0.88300  0.99900  1.0000
  P   P1        1.0  0.85600  0.23500  0.28100  1.0000
  P   P2        1.0  0.35600  0.26500  0.28100  1.0000
  P   P3        1.0  0.64400  0.73500  0.78100  1.0000
  P   P4        1.0  0.14400  0.76500  0.78100  1.0000
