data_image0
_chemical_formula_structural       Ag6C12H12N12O6Tb2
_chemical_formula_sum              "Ag6 C12 H12 N12 O6 Tb2"
_cell_length_a       6.36204
_cell_length_b       6.36204
_cell_length_c       18.7957
_cell_angle_alpha    90
_cell_angle_beta     90
_cell_angle_gamma    120

_space_group_name_H-M_alt    "P 1"
_space_group_IT_number       1

loop_
  _space_group_symop_operation_xyz
  'x, y, z'

loop_
  _atom_site_type_symbol
  _atom_site_label
  _atom_site_symmetry_multiplicity
  _atom_site_fract_x
  _atom_site_fract_y
  _atom_site_fract_z
  _atom_site_occupancy
  Ag  Ag1       1.0  0.50000  0.00000  0.00000  1.0000
  Ag  Ag2       1.0  0.00000  0.50000  0.00000  1.0000
  Ag  Ag3       1.0  0.50000  0.50000  0.00000  1.0000
  Ag  Ag4       1.0  0.50000  0.00000  0.50000  1.0000
  Ag  Ag5       1.0  0.00000  0.50000  0.50000  1.0000
  Ag  Ag6       1.0  0.50000  0.50000  0.50000  1.0000
  C   C1        1.0  0.65100  0.00000  0.09610  1.0000
  C   C2        1.0  0.34900  0.34900  0.09610  1.0000
  C   C3        1.0  0.00000  0.65100  0.09610  1.0000
  C   C4        1.0  0.65100  0.00000  0.40400  1.0000
  C   C5        1.0  0.34900  0.34900  0.40400  1.0000
  C   C6        1.0  0.00000  0.65100  0.40400  1.0000
  C   C7        1.0  0.34900  0.00000  0.59600  1.0000
  C   C8        1.0  0.00000  0.34900  0.59600  1.0000
  C   C9        1.0  0.65100  0.65100  0.59600  1.0000
  C   C10       1.0  0.34900  0.00000  0.90400  1.0000
  C   C11       1.0  0.00000  0.34900  0.90400  1.0000
  C   C12       1.0  0.65100  0.65100  0.90400  1.0000
  H   H1        1.0  0.46500  0.00000  0.20800  1.0000
  H   H2        1.0  0.00000  0.46500  0.20800  1.0000
  H   H3        1.0  0.53500  0.53500  0.20800  1.0000
  H   H4        1.0  0.46500  0.00000  0.29200  1.0000
  H   H5        1.0  0.00000  0.46500  0.29200  1.0000
  H   H6        1.0  0.53500  0.53500  0.29200  1.0000
  H   H7        1.0  0.53500  0.00000  0.70800  1.0000
  H   H8        1.0  0.46500  0.46500  0.70800  1.0000
  H   H9        1.0  0.00000  0.53500  0.70800  1.0000
  H   H10       1.0  0.53500  0.00000  0.79200  1.0000
  H   H11       1.0  0.46500  0.46500  0.79200  1.0000
  H   H12       1.0  0.00000  0.53500  0.79200  1.0000
  N   N1        1.0  0.73500  0.00000  0.15100  1.0000
  N   N2        1.0  0.26500  0.26500  0.15100  1.0000
  N   N3        1.0  0.00000  0.73500  0.15100  1.0000
  N   N4        1.0  0.73500  0.00000  0.34900  1.0000
  N   N5        1.0  0.26500  0.26500  0.34900  1.0000
  N   N6        1.0  0.00000  0.73500  0.34900  1.0000
  N   N7        1.0  0.26500  0.00000  0.65100  1.0000
  N   N8        1.0  0.00000  0.26500  0.65100  1.0000
  N   N9        1.0  0.73500  0.73500  0.65100  1.0000
  N   N10       1.0  0.26500  0.00000  0.84900  1.0000
  N   N11       1.0  0.00000  0.26500  0.84900  1.0000
  N   N12       1.0  0.73500  0.73500  0.84900  1.0000
  O   O1        1.0  0.37300  0.00000  0.25000  1.0000
  O   O2        1.0  0.00000  0.37300  0.25000  1.0000
  O   O3        1.0  0.62700  0.62700  0.25000  1.0000
  O   O4        1.0  0.62700  0.00000  0.75000  1.0000
  O   O5        1.0  0.37300  0.37300  0.75000  1.0000
  O   O6        1.0  0.00000  0.62700  0.75000  1.0000
  Tb  Tb1       1.0  0.00000  0.00000  0.25000  1.0000
  Tb  Tb2       1.0  0.00000  0.00000  0.75000  1.0000
