data_image0
_chemical_formula_structural       Br8C8H28N4Sn2
_chemical_formula_sum              "Br8 C8 H28 N4 Sn2"
_cell_length_a       6.54201
_cell_length_b       12.0082
_cell_length_c       8.32269
_cell_angle_alpha    90
_cell_angle_beta     95.9601
_cell_angle_gamma    90

_space_group_name_H-M_alt    "P 1"
_space_group_IT_number       1

loop_
  _space_group_symop_operation_xyz
  'x, y, z'

loop_
  _atom_site_type_symbol
  _atom_site_label
  _atom_site_symmetry_multiplicity
  _atom_site_fract_x
  _atom_site_fract_y
  _atom_site_fract_z
  _atom_site_occupancy
  Br  Br1       1.0  0.16400  0.80700  0.08340  1.0000
  Br  Br2       1.0  0.74600  0.98100  0.22400  1.0000
  Br  Br3       1.0  0.25400  0.48100  0.27600  1.0000
  Br  Br4       1.0  0.83600  0.30700  0.41700  1.0000
  Br  Br5       1.0  0.16400  0.69300  0.58300  1.0000
  Br  Br6       1.0  0.74600  0.51900  0.72400  1.0000
  Br  Br7       1.0  0.25400  0.01930  0.77600  1.0000
  Br  Br8       1.0  0.83600  0.19300  0.91700  1.0000
  C   C1        1.0  0.30600  0.19200  0.14600  1.0000
  C   C2        1.0  0.76000  0.55200  0.15200  1.0000
  C   C3        1.0  0.24000  0.05230  0.34800  1.0000
  C   C4        1.0  0.69400  0.69200  0.35400  1.0000
  C   C5        1.0  0.30600  0.30800  0.64600  1.0000
  C   C6        1.0  0.76000  0.94800  0.65200  1.0000
  C   C7        1.0  0.24000  0.44800  0.84800  1.0000
  C   C8        1.0  0.69400  0.80800  0.85400  1.0000
  H   H1        1.0  0.34000  0.20200  0.02030  1.0000
  H   H2        1.0  0.62200  0.58300  0.07830  1.0000
  H   H3        1.0  0.89500  0.59600  0.11500  1.0000
  H   H4        1.0  0.77600  0.46300  0.13300  1.0000
  H   H5        1.0  0.38300  0.02750  0.14500  1.0000
  H   H6        1.0  0.17400  0.24400  0.16800  1.0000
  H   H7        1.0  0.44100  0.21800  0.22700  1.0000
  H   H8        1.0  0.55900  0.71800  0.27300  1.0000
  H   H9        1.0  0.82600  0.74400  0.33200  1.0000
  H   H10       1.0  0.61700  0.52700  0.35500  1.0000
  H   H11       1.0  0.22400  0.96300  0.36700  1.0000
  H   H12       1.0  0.10500  0.09580  0.38500  1.0000
  H   H13       1.0  0.37800  0.08310  0.42200  1.0000
  H   H14       1.0  0.66000  0.70200  0.48000  1.0000
  H   H15       1.0  0.34000  0.29800  0.52000  1.0000
  H   H16       1.0  0.62200  0.91700  0.57800  1.0000
  H   H17       1.0  0.89500  0.90400  0.61500  1.0000
  H   H18       1.0  0.77600  0.03750  0.63300  1.0000
  H   H19       1.0  0.38300  0.47300  0.64500  1.0000
  H   H20       1.0  0.17400  0.25600  0.66800  1.0000
  H   H21       1.0  0.44100  0.28200  0.72700  1.0000
  H   H22       1.0  0.55900  0.78200  0.77300  1.0000
  H   H23       1.0  0.82600  0.75600  0.83200  1.0000
  H   H24       1.0  0.61700  0.97300  0.85500  1.0000
  H   H25       1.0  0.22400  0.53700  0.86700  1.0000
  H   H26       1.0  0.10500  0.40400  0.88500  1.0000
  H   H27       1.0  0.37800  0.41700  0.92200  1.0000
  H   H28       1.0  0.66000  0.79800  0.98000  1.0000
  N   N1        1.0  0.26000  0.07430  0.17600  1.0000
  N   N2        1.0  0.74000  0.57400  0.32400  1.0000
  N   N3        1.0  0.26000  0.42600  0.67600  1.0000
  N   N4        1.0  0.74000  0.92600  0.82400  1.0000
  Sn  Sn1       1.0  0.00000  0.00000  0.00000  1.0000
  Sn  Sn2       1.0  0.00000  0.50000  0.50000  1.0000
