data_image0
_chemical_formula_structural       B4C8H40N4
_chemical_formula_sum              "B4 C8 H40 N4"
_cell_length_a       6.70538
_cell_length_b       5.48729
_cell_length_c       11.4663
_cell_angle_alpha    90
_cell_angle_beta     105.592
_cell_angle_gamma    90

_space_group_name_H-M_alt    "P 1"
_space_group_IT_number       1

loop_
  _space_group_symop_operation_xyz
  'x, y, z'

loop_
  _atom_site_type_symbol
  _atom_site_label
  _atom_site_symmetry_multiplicity
  _atom_site_fract_x
  _atom_site_fract_y
  _atom_site_fract_z
  _atom_site_occupancy
  B   B1        1.0  0.20500  0.93200  0.33900  1.0000
  B   B2        1.0  0.79500  0.43200  0.16100  1.0000
  B   B3        1.0  0.79500  0.06790  0.66100  1.0000
  B   B4        1.0  0.20500  0.56800  0.83900  1.0000
  C   C1        1.0  0.19900  0.30100  0.47200  1.0000
  C   C2        1.0  0.80100  0.80100  0.02850  1.0000
  C   C3        1.0  0.80100  0.69900  0.52800  1.0000
  C   C4        1.0  0.19900  0.19900  0.97200  1.0000
  C   C5        1.0  0.39600  0.32400  0.32100  1.0000
  C   C6        1.0  0.60400  0.82400  0.17900  1.0000
  C   C7        1.0  0.60400  0.67600  0.67900  1.0000
  C   C8        1.0  0.39600  0.17600  0.82100  1.0000
  H   H1        1.0  0.05520  0.23100  0.48700  1.0000
  H   H2        1.0  0.94500  0.73100  0.01270  1.0000
  H   H3        1.0  0.94500  0.76900  0.51300  1.0000
  H   H4        1.0  0.05520  0.26900  0.98700  1.0000
  H   H5        1.0  0.33100  0.22500  0.54000  1.0000
  H   H6        1.0  0.66900  0.72500  0.96000  1.0000
  H   H7        1.0  0.66900  0.77500  0.46000  1.0000
  H   H8        1.0  0.33100  0.27500  0.03960  1.0000
  H   H9        1.0  0.35800  0.85300  0.41200  1.0000
  H   H10       1.0  0.64200  0.35300  0.08770  1.0000
  H   H11       1.0  0.64200  0.14700  0.58800  1.0000
  H   H12       1.0  0.35800  0.64700  0.91200  1.0000
  H   H13       1.0  0.20600  0.87900  0.23600  1.0000
  H   H14       1.0  0.79400  0.37900  0.26400  1.0000
  H   H15       1.0  0.79400  0.12100  0.76400  1.0000
  H   H16       1.0  0.20600  0.62100  0.73600  1.0000
  H   H17       1.0  0.04910  0.86100  0.36400  1.0000
  H   H18       1.0  0.95100  0.36100  0.13600  1.0000
  H   H19       1.0  0.95100  0.13900  0.63600  1.0000
  H   H20       1.0  0.04910  0.63900  0.86400  1.0000
  H   H21       1.0  0.39600  0.52300  0.32900  1.0000
  H   H22       1.0  0.60400  0.02260  0.17100  1.0000
  H   H23       1.0  0.60400  0.47700  0.67100  1.0000
  H   H24       1.0  0.39600  0.97700  0.82900  1.0000
  H   H25       1.0  0.20200  0.50100  0.47700  1.0000
  H   H26       1.0  0.79800  0.00068  0.02310  1.0000
  H   H27       1.0  0.79800  0.49900  0.52300  1.0000
  H   H28       1.0  0.20200  0.99900  0.97700  1.0000
  H   H29       1.0  0.39200  0.27300  0.22800  1.0000
  H   H30       1.0  0.60800  0.77300  0.27200  1.0000
  H   H31       1.0  0.60800  0.72700  0.77200  1.0000
  H   H32       1.0  0.39200  0.22700  0.72800  1.0000
  H   H33       1.0  0.53600  0.24700  0.38300  1.0000
  H   H34       1.0  0.46400  0.74700  0.11700  1.0000
  H   H35       1.0  0.46400  0.75300  0.61700  1.0000
  H   H36       1.0  0.53600  0.25300  0.88300  1.0000
  H   H37       1.0  0.08230  0.28800  0.28800  1.0000
  H   H38       1.0  0.91800  0.78800  0.21200  1.0000
  H   H39       1.0  0.91800  0.71200  0.71200  1.0000
  H   H40       1.0  0.08230  0.21200  0.78800  1.0000
  N   N1        1.0  0.21200  0.22000  0.35100  1.0000
  N   N2        1.0  0.78800  0.72000  0.14900  1.0000
  N   N3        1.0  0.78800  0.78000  0.64900  1.0000
  N   N4        1.0  0.21200  0.28000  0.85100  1.0000
