data_image0
_chemical_formula_structural       C4H20N12O16
_chemical_formula_sum              "C4 H20 N12 O16"
_cell_length_a       9.29972
_cell_length_b       8.10323
_cell_length_c       6.97795
_cell_angle_alpha    90
_cell_angle_beta     126.347
_cell_angle_gamma    90

_space_group_name_H-M_alt    "P 1"
_space_group_IT_number       1

loop_
  _space_group_symop_operation_xyz
  'x, y, z'

loop_
  _atom_site_type_symbol
  _atom_site_label
  _atom_site_symmetry_multiplicity
  _atom_site_fract_x
  _atom_site_fract_y
  _atom_site_fract_z
  _atom_site_occupancy
  C   C1        1.0  0.80400  0.91000  0.24500  1.0000
  C   C2        1.0  0.19600  0.41000  0.25500  1.0000
  C   C3        1.0  0.80400  0.59000  0.74500  1.0000
  C   C4        1.0  0.19600  0.09020  0.75500  1.0000
  H   H1        1.0  0.63100  0.75300  0.23700  1.0000
  H   H2        1.0  0.58400  0.96100  0.24300  1.0000
  H   H3        1.0  0.87400  0.67000  0.24300  1.0000
  H   H4        1.0  0.98900  0.32500  0.25000  1.0000
  H   H5        1.0  0.23000  0.64800  0.25000  1.0000
  H   H6        1.0  0.77000  0.14800  0.25000  1.0000
  H   H7        1.0  0.01110  0.82500  0.25000  1.0000
  H   H8        1.0  0.12600  0.17000  0.25700  1.0000
  H   H9        1.0  0.41600  0.46100  0.25700  1.0000
  H   H10       1.0  0.36900  0.25300  0.26300  1.0000
  H   H11       1.0  0.63100  0.74700  0.73700  1.0000
  H   H12       1.0  0.58400  0.53900  0.74300  1.0000
  H   H13       1.0  0.87400  0.83000  0.74300  1.0000
  H   H14       1.0  0.98900  0.17500  0.75000  1.0000
  H   H15       1.0  0.23000  0.85200  0.75000  1.0000
  H   H16       1.0  0.77000  0.35200  0.75000  1.0000
  H   H17       1.0  0.01110  0.67500  0.75000  1.0000
  H   H18       1.0  0.12600  0.33000  0.75700  1.0000
  H   H19       1.0  0.41600  0.03890  0.75700  1.0000
  H   H20       1.0  0.36900  0.24700  0.76300  1.0000
  N   N1        1.0  0.66300  0.87400  0.23900  1.0000
  N   N2        1.0  0.90300  0.79200  0.24600  1.0000
  N   N3        1.0  0.68800  0.41900  0.24700  1.0000
  N   N4        1.0  0.31200  0.91900  0.25300  1.0000
  N   N5        1.0  0.09670  0.29200  0.25400  1.0000
  N   N6        1.0  0.33700  0.37400  0.26100  1.0000
  N   N7        1.0  0.66300  0.62600  0.73900  1.0000
  N   N8        1.0  0.90300  0.70800  0.74600  1.0000
  N   N9        1.0  0.68800  0.08080  0.74700  1.0000
  N   N10       1.0  0.31200  0.58100  0.75300  1.0000
  N   N11       1.0  0.09670  0.20800  0.75400  1.0000
  N   N12       1.0  0.33700  0.12600  0.76100  1.0000
  O   O1        1.0  0.81800  0.45000  0.24000  1.0000
  O   O2        1.0  0.59700  0.53500  0.24600  1.0000
  O   O3        1.0  0.35400  0.77100  0.24700  1.0000
  O   O4        1.0  0.85200  0.06340  0.24900  1.0000
  O   O5        1.0  0.14800  0.56300  0.25100  1.0000
  O   O6        1.0  0.64600  0.27100  0.25300  1.0000
  O   O7        1.0  0.40300  0.03510  0.25400  1.0000
  O   O8        1.0  0.18200  0.95000  0.26000  1.0000
  O   O9        1.0  0.81800  0.04980  0.74000  1.0000
  O   O10       1.0  0.59700  0.96500  0.74600  1.0000
  O   O11       1.0  0.35400  0.72900  0.74700  1.0000
  O   O12       1.0  0.85200  0.43700  0.74900  1.0000
  O   O13       1.0  0.14800  0.93700  0.75100  1.0000
  O   O14       1.0  0.64600  0.22900  0.75300  1.0000
  O   O15       1.0  0.40300  0.46500  0.75400  1.0000
  O   O16       1.0  0.18200  0.55000  0.76000  1.0000
