data_image0
_chemical_formula_structural       C8H16O24V4
_chemical_formula_sum              "C8 H16 O24 V4"
_cell_length_a       8.2056
_cell_length_b       6.81524
_cell_length_c       8.69524
_cell_angle_alpha    90
_cell_angle_beta     90
_cell_angle_gamma    90

_space_group_name_H-M_alt    "P 1"
_space_group_IT_number       1

loop_
  _space_group_symop_operation_xyz
  'x, y, z'

loop_
  _atom_site_type_symbol
  _atom_site_label
  _atom_site_symmetry_multiplicity
  _atom_site_fract_x
  _atom_site_fract_y
  _atom_site_fract_z
  _atom_site_occupancy
  C   C1        1.0  0.25300  0.23000  0.00756  1.0000
  C   C2        1.0  0.24700  0.77000  0.00756  1.0000
  C   C3        1.0  0.74700  0.23000  0.49200  1.0000
  C   C4        1.0  0.75300  0.77000  0.49200  1.0000
  C   C5        1.0  0.24700  0.23000  0.50800  1.0000
  C   C6        1.0  0.25300  0.77000  0.50800  1.0000
  C   C7        1.0  0.75300  0.23000  0.99200  1.0000
  C   C8        1.0  0.74700  0.77000  0.99200  1.0000
  H   H1        1.0  0.65800  0.16700  0.06800  1.0000
  H   H2        1.0  0.84200  0.83300  0.06800  1.0000
  H   H3        1.0  0.41200  0.38200  0.21000  1.0000
  H   H4        1.0  0.08830  0.61800  0.21000  1.0000
  H   H5        1.0  0.58800  0.38200  0.29000  1.0000
  H   H6        1.0  0.91200  0.61800  0.29000  1.0000
  H   H7        1.0  0.34200  0.16700  0.43200  1.0000
  H   H8        1.0  0.15800  0.83300  0.43200  1.0000
  H   H9        1.0  0.84200  0.16700  0.56800  1.0000
  H   H10       1.0  0.65800  0.83300  0.56800  1.0000
  H   H11       1.0  0.08830  0.38200  0.71000  1.0000
  H   H12       1.0  0.41200  0.61800  0.71000  1.0000
  H   H13       1.0  0.91200  0.38200  0.79000  1.0000
  H   H14       1.0  0.58800  0.61800  0.79000  1.0000
  H   H15       1.0  0.15800  0.16700  0.93200  1.0000
  H   H16       1.0  0.34200  0.83300  0.93200  1.0000
  O   O1        1.0  0.89500  0.26100  0.04190  1.0000
  O   O2        1.0  0.60500  0.73900  0.04190  1.0000
  O   O3        1.0  0.21900  0.27200  0.14700  1.0000
  O   O4        1.0  0.28100  0.72800  0.14700  1.0000
  O   O5        1.0  0.50000  0.01880  0.25000  1.0000
  O   O6        1.0  0.50000  0.46500  0.25000  1.0000
  O   O7        1.0  0.00000  0.53500  0.25000  1.0000
  O   O8        1.0  0.00000  0.98100  0.25000  1.0000
  O   O9        1.0  0.78100  0.27200  0.35300  1.0000
  O   O10       1.0  0.71900  0.72800  0.35300  1.0000
  O   O11       1.0  0.10500  0.26100  0.45800  1.0000
  O   O12       1.0  0.39500  0.73900  0.45800  1.0000
  O   O13       1.0  0.60500  0.26100  0.54200  1.0000
  O   O14       1.0  0.89500  0.73900  0.54200  1.0000
  O   O15       1.0  0.28100  0.27200  0.64700  1.0000
  O   O16       1.0  0.21900  0.72800  0.64700  1.0000
  O   O17       1.0  0.00000  0.01880  0.75000  1.0000
  O   O18       1.0  0.00000  0.46500  0.75000  1.0000
  O   O19       1.0  0.50000  0.53500  0.75000  1.0000
  O   O20       1.0  0.50000  0.98100  0.75000  1.0000
  O   O21       1.0  0.71900  0.27200  0.85300  1.0000
  O   O22       1.0  0.78100  0.72800  0.85300  1.0000
  O   O23       1.0  0.39500  0.26100  0.95800  1.0000
  O   O24       1.0  0.10500  0.73900  0.95800  1.0000
  V   V1        1.0  0.00000  0.22200  0.25000  1.0000
  V   V2        1.0  0.50000  0.77800  0.25000  1.0000
  V   V3        1.0  0.50000  0.22200  0.75000  1.0000
  V   V4        1.0  0.00000  0.77800  0.75000  1.0000
