data_image0
_chemical_formula_structural       C8H16In2K2O24
_chemical_formula_sum              "C8 H16 In2 K2 O24"
_cell_length_a       8.65106
_cell_length_b       8.91078
_cell_length_c       8.91078
_cell_angle_alpha    103.629
_cell_angle_beta     60.9596
_cell_angle_gamma    119.04

_space_group_name_H-M_alt    "P 1"
_space_group_IT_number       1

loop_
  _space_group_symop_operation_xyz
  'x, y, z'

loop_
  _atom_site_type_symbol
  _atom_site_label
  _atom_site_symmetry_multiplicity
  _atom_site_fract_x
  _atom_site_fract_y
  _atom_site_fract_z
  _atom_site_occupancy
  C   C1        1.0  0.91900  0.52600  0.02100  1.0000
  C   C2        1.0  0.56000  0.97900  0.02550  1.0000
  C   C3        1.0  0.10700  0.52100  0.47400  1.0000
  C   C4        1.0  0.91400  0.97400  0.47900  1.0000
  C   C5        1.0  0.08560  0.02550  0.52100  1.0000
  C   C6        1.0  0.89300  0.47900  0.52600  1.0000
  C   C7        1.0  0.44000  0.02100  0.97400  1.0000
  C   C8        1.0  0.08110  0.47400  0.97900  1.0000
  H   H1        1.0  0.87500  0.09950  0.07880  1.0000
  H   H2        1.0  0.27600  0.42100  0.09950  1.0000
  H   H3        1.0  0.01910  0.17500  0.16800  1.0000
  H   H4        1.0  0.34400  0.33200  0.17500  1.0000
  H   H5        1.0  0.68700  0.16800  0.32500  1.0000
  H   H6        1.0  0.51200  0.32500  0.33200  1.0000
  H   H7        1.0  0.45400  0.07880  0.40000  1.0000
  H   H8        1.0  0.35500  0.40000  0.42100  1.0000
  H   H9        1.0  0.64500  0.60000  0.57900  1.0000
  H   H10       1.0  0.54600  0.92100  0.60000  1.0000
  H   H11       1.0  0.48800  0.67500  0.66800  1.0000
  H   H12       1.0  0.31300  0.83200  0.67500  1.0000
  H   H13       1.0  0.65600  0.66800  0.82500  1.0000
  H   H14       1.0  0.98100  0.82500  0.83200  1.0000
  H   H15       1.0  0.72400  0.57900  0.90000  1.0000
  H   H16       1.0  0.12500  0.90000  0.92100  1.0000
  In  In1       1.0  0.12500  0.75000  0.25000  1.0000
  In  In2       1.0  0.87500  0.25000  0.75000  1.0000
  K   K1        1.0  0.62500  0.75000  0.25000  1.0000
  K   K2        1.0  0.37500  0.25000  0.75000  1.0000
  O   O1        1.0  0.19200  0.55500  0.05480  1.0000
  O   O2        1.0  0.25400  0.94500  0.05520  1.0000
  O   O3        1.0  0.27000  0.31100  0.10900  1.0000
  O   O4        1.0  0.90700  0.64500  0.12700  1.0000
  O   O5        1.0  0.46600  0.87300  0.14500  1.0000
  O   O6        1.0  0.87900  0.10900  0.18900  1.0000
  O   O7        1.0  0.45900  0.39100  0.31100  1.0000
  O   O8        1.0  0.23700  0.62700  0.35500  1.0000
  O   O9        1.0  0.89000  0.85500  0.37300  1.0000
  O   O10       1.0  0.56800  0.18900  0.39100  1.0000
  O   O11       1.0  0.86400  0.55500  0.44500  1.0000
  O   O12       1.0  0.19100  0.94500  0.44500  1.0000
  O   O13       1.0  0.80900  0.05520  0.55500  1.0000
  O   O14       1.0  0.13600  0.44500  0.55500  1.0000
  O   O15       1.0  0.43200  0.81100  0.60900  1.0000
  O   O16       1.0  0.11000  0.14500  0.62700  1.0000
  O   O17       1.0  0.76300  0.37300  0.64500  1.0000
  O   O18       1.0  0.54100  0.60900  0.68900  1.0000
  O   O19       1.0  0.12100  0.89100  0.81100  1.0000
  O   O20       1.0  0.53400  0.12700  0.85500  1.0000
  O   O21       1.0  0.09250  0.35500  0.87300  1.0000
  O   O22       1.0  0.73000  0.68900  0.89100  1.0000
  O   O23       1.0  0.74600  0.05480  0.94500  1.0000
  O   O24       1.0  0.80800  0.44500  0.94500  1.0000
