data_image0
_chemical_formula_structural       C4H16N12Na4O8S8
_chemical_formula_sum              "C4 H16 N12 Na4 O8 S8"
_cell_length_a       5.74083
_cell_length_b       18.2649
_cell_length_c       6.66784
_cell_angle_alpha    90
_cell_angle_beta     115.166
_cell_angle_gamma    90

_space_group_name_H-M_alt    "P 1"
_space_group_IT_number       1

loop_
  _space_group_symop_operation_xyz
  'x, y, z'

loop_
  _atom_site_type_symbol
  _atom_site_label
  _atom_site_symmetry_multiplicity
  _atom_site_fract_x
  _atom_site_fract_y
  _atom_site_fract_z
  _atom_site_occupancy
  C   C1        1.0  0.77700  0.65900  0.00251  1.0000
  C   C2        1.0  0.72300  0.15900  0.49700  1.0000
  C   C3        1.0  0.27700  0.84100  0.50300  1.0000
  C   C4        1.0  0.22300  0.34100  0.99700  1.0000
  H   H1        1.0  0.64000  0.87100  0.09220  1.0000
  H   H2        1.0  0.01210  0.12900  0.09760  1.0000
  H   H3        1.0  0.67900  0.42800  0.23800  1.0000
  H   H4        1.0  0.56400  0.57800  0.24700  1.0000
  H   H5        1.0  0.93600  0.07800  0.25300  1.0000
  H   H6        1.0  0.82100  0.92800  0.26200  1.0000
  H   H7        1.0  0.48800  0.62900  0.40200  1.0000
  H   H8        1.0  0.86000  0.37100  0.40800  1.0000
  H   H9        1.0  0.14000  0.62900  0.59200  1.0000
  H   H10       1.0  0.51200  0.37100  0.59800  1.0000
  H   H11       1.0  0.17900  0.07220  0.73800  1.0000
  H   H12       1.0  0.06410  0.92200  0.74700  1.0000
  H   H13       1.0  0.43600  0.42200  0.75300  1.0000
  H   H14       1.0  0.32100  0.57200  0.76200  1.0000
  H   H15       1.0  0.98800  0.87100  0.90200  1.0000
  H   H16       1.0  0.36000  0.12900  0.90800  1.0000
  N   N1        1.0  0.72100  0.77800  0.03080  1.0000
  N   N2        1.0  0.09320  0.21700  0.03130  1.0000
  N   N3        1.0  0.64400  0.71100  0.05340  1.0000
  N   N4        1.0  0.85600  0.21100  0.44700  1.0000
  N   N5        1.0  0.40700  0.71700  0.46900  1.0000
  N   N6        1.0  0.77900  0.27800  0.46900  1.0000
  N   N7        1.0  0.22100  0.72200  0.53100  1.0000
  N   N8        1.0  0.59300  0.28300  0.53100  1.0000
  N   N9        1.0  0.14400  0.78900  0.55300  1.0000
  N   N10       1.0  0.35600  0.28900  0.94700  1.0000
  N   N11       1.0  0.90700  0.78300  0.96900  1.0000
  N   N12       1.0  0.27900  0.22200  0.96900  1.0000
  Na  Na1       1.0  0.32000  0.99800  0.14600  1.0000
  Na  Na2       1.0  0.18000  0.49800  0.35400  1.0000
  Na  Na3       1.0  0.82000  0.50200  0.64600  1.0000
  Na  Na4       1.0  0.68000  0.00236  0.85400  1.0000
  O   O1        1.0  0.99000  0.07660  0.13000  1.0000
  O   O2        1.0  0.64900  0.92400  0.13600  1.0000
  O   O3        1.0  0.85100  0.42400  0.36400  1.0000
  O   O4        1.0  0.51000  0.57700  0.37000  1.0000
  O   O5        1.0  0.49000  0.42300  0.63000  1.0000
  O   O6        1.0  0.14900  0.57600  0.63600  1.0000
  O   O7        1.0  0.35100  0.07650  0.86400  1.0000
  O   O8        1.0  0.00998  0.92300  0.87000  1.0000
  S   S1        1.0  0.72800  0.56700  0.00615  1.0000
  S   S2        1.0  0.00000  0.30000  0.07140  1.0000
  S   S3        1.0  0.50000  0.80000  0.42900  1.0000
  S   S4        1.0  0.77200  0.06740  0.49400  1.0000
  S   S5        1.0  0.22800  0.93300  0.50600  1.0000
  S   S6        1.0  0.50000  0.20000  0.57100  1.0000
  S   S7        1.0  0.00016  0.70000  0.92900  1.0000
  S   S8        1.0  0.27200  0.43300  0.99400  1.0000
