data_image0
_chemical_formula_structural       C8H16O24Th2
_chemical_formula_sum              "C8 H16 O24 Th2"
_cell_length_a       7.45069
_cell_length_b       7.62616
_cell_length_c       10.6359
_cell_angle_alpha    109.486
_cell_angle_beta     110.503
_cell_angle_gamma    60.7583

_space_group_name_H-M_alt    "P 1"
_space_group_IT_number       1

loop_
  _space_group_symop_operation_xyz
  'x, y, z'

loop_
  _atom_site_type_symbol
  _atom_site_label
  _atom_site_symmetry_multiplicity
  _atom_site_fract_x
  _atom_site_fract_y
  _atom_site_fract_z
  _atom_site_occupancy
  C   C1        1.0  0.89500  0.08970  0.01170  1.0000
  C   C2        1.0  0.92400  0.58400  0.04440  1.0000
  C   C3        1.0  0.46300  0.91600  0.45600  1.0000
  C   C4        1.0  0.97300  0.41000  0.48800  1.0000
  C   C5        1.0  0.02660  0.59000  0.51200  1.0000
  C   C6        1.0  0.53700  0.08440  0.54400  1.0000
  C   C7        1.0  0.07640  0.41600  0.95600  1.0000
  C   C8        1.0  0.10500  0.91000  0.98800  1.0000
  H   H1        1.0  0.61800  0.92400  0.10700  1.0000
  H   H2        1.0  0.67700  0.44600  0.12500  1.0000
  H   H3        1.0  0.48500  0.67700  0.12700  1.0000
  H   H4        1.0  0.47900  0.50100  0.24100  1.0000
  H   H5        1.0  0.73900  0.99900  0.25900  1.0000
  H   H6        1.0  0.03580  0.82300  0.37300  1.0000
  H   H7        1.0  0.99800  0.05350  0.37500  1.0000
  H   H8        1.0  0.43500  0.57600  0.39300  1.0000
  H   H9        1.0  0.56500  0.42400  0.60700  1.0000
  H   H10       1.0  0.00178  0.94600  0.62500  1.0000
  H   H11       1.0  0.96400  0.17700  0.62700  1.0000
  H   H12       1.0  0.26100  0.00123  0.74100  1.0000
  H   H13       1.0  0.52100  0.49900  0.75900  1.0000
  H   H14       1.0  0.51500  0.32300  0.87300  1.0000
  H   H15       1.0  0.32300  0.55400  0.87500  1.0000
  H   H16       1.0  0.38200  0.07630  0.89300  1.0000
  O   O1        1.0  0.23600  0.27700  0.01450  1.0000
  O   O2        1.0  0.27200  0.92100  0.06540  1.0000
  O   O3        1.0  0.90900  0.23800  0.10800  1.0000
  O   O4        1.0  0.53900  0.54200  0.14800  1.0000
  O   O5        1.0  0.96700  0.57400  0.16700  1.0000
  O   O6        1.0  0.59100  0.03150  0.19000  1.0000
  O   O7        1.0  0.43300  0.46800  0.31000  1.0000
  O   O8        1.0  0.37300  0.92600  0.33300  1.0000
  O   O9        1.0  0.93300  0.95800  0.35200  1.0000
  O   O10       1.0  0.03930  0.26200  0.39200  1.0000
  O   O11       1.0  0.12800  0.57900  0.43500  1.0000
  O   O12       1.0  0.49900  0.22300  0.48500  1.0000
  O   O13       1.0  0.50100  0.77700  0.51500  1.0000
  O   O14       1.0  0.87200  0.42100  0.56500  1.0000
  O   O15       1.0  0.96100  0.73800  0.60800  1.0000
  O   O16       1.0  0.06670  0.04250  0.64800  1.0000
  O   O17       1.0  0.62700  0.07370  0.66700  1.0000
  O   O18       1.0  0.56700  0.53200  0.69000  1.0000
  O   O19       1.0  0.40900  0.96800  0.81000  1.0000
  O   O20       1.0  0.03300  0.42600  0.83300  1.0000
  O   O21       1.0  0.46100  0.45800  0.85200  1.0000
  O   O22       1.0  0.09090  0.76200  0.89200  1.0000
  O   O23       1.0  0.72800  0.07860  0.93500  1.0000
  O   O24       1.0  0.76400  0.72300  0.98500  1.0000
  Th  Th1       1.0  0.25800  0.25000  0.25000  1.0000
  Th  Th2       1.0  0.74200  0.75000  0.75000  1.0000
