data_image0
_chemical_formula_structural       Br2C12H36P4Tc
_chemical_formula_sum              "Br2 C12 H36 P4 Tc1"
_cell_length_a       9.01635
_cell_length_b       9.01635
_cell_length_c       9.01635
_cell_angle_alpha    95.7286
_cell_angle_beta     116.75
_cell_angle_gamma    116.75

_space_group_name_H-M_alt    "P 1"
_space_group_IT_number       1

loop_
  _space_group_symop_operation_xyz
  'x, y, z'

loop_
  _atom_site_type_symbol
  _atom_site_label
  _atom_site_symmetry_multiplicity
  _atom_site_fract_x
  _atom_site_fract_y
  _atom_site_fract_z
  _atom_site_occupancy
  Br  Br1       1.0  0.00000  0.21500  0.21500  1.0000
  Br  Br2       1.0  1.00000  0.78500  0.78500  1.0000
  C   C1        1.0  0.79300  0.55300  0.01140  1.0000
  C   C2        1.0  0.53300  0.18000  0.18000  1.0000
  C   C3        1.0  0.20700  0.75900  0.21800  1.0000
  C   C4        1.0  0.45900  0.44700  0.24100  1.0000
  C   C5        1.0  0.00000  0.82000  0.35300  1.0000
  C   C6        1.0  0.45900  0.24100  0.44700  1.0000
  C   C7        1.0  0.79300  0.01140  0.55300  1.0000
  C   C8        1.0  0.46700  0.64700  0.64700  1.0000
  C   C9        1.0  0.20700  0.21800  0.75900  1.0000
  C   C10       1.0  0.54100  0.98900  0.78200  1.0000
  C   C11       1.0  0.00000  0.35300  0.82000  1.0000
  C   C12       1.0  0.54100  0.78200  0.98900  1.0000
  H   H1        1.0  0.54800  0.66900  0.01720  1.0000
  H   H2        1.0  0.50600  0.18100  0.04910  1.0000
  H   H3        1.0  0.82300  0.46600  0.08130  1.0000
  H   H4        1.0  0.22100  0.73700  0.10500  1.0000
  H   H5        1.0  0.63300  0.89500  0.11600  1.0000
  H   H6        1.0  0.45200  0.46900  0.12100  1.0000
  H   H7        1.0  0.50600  0.04910  0.18100  1.0000
  H   H8        1.0  0.17700  0.64300  0.25800  1.0000
  H   H9        1.0  0.36700  0.48400  0.26300  1.0000
  H   H10       1.0  0.69000  0.28600  0.28600  1.0000
  H   H11       1.0  0.86800  0.81900  0.32400  1.0000
  H   H12       1.0  0.34800  0.87900  0.33100  1.0000
  H   H13       1.0  0.61500  0.53400  0.35700  1.0000
  H   H14       1.0  1.00000  0.71400  0.40300  1.0000
  H   H15       1.0  0.13200  0.95100  0.45700  1.0000
  H   H16       1.0  0.82300  0.08130  0.46600  1.0000
  H   H17       1.0  0.45200  0.12100  0.46900  1.0000
  H   H18       1.0  0.36700  0.26300  0.48400  1.0000
  H   H19       1.0  0.77900  0.88400  0.51600  1.0000
  H   H20       1.0  0.65200  0.98300  0.53100  1.0000
  H   H21       1.0  0.61500  0.35700  0.53400  1.0000
  H   H22       1.0  0.49400  0.67600  0.54300  1.0000
  H   H23       1.0  0.31000  0.59700  0.59700  1.0000
  H   H24       1.0  0.17700  0.25800  0.64300  1.0000
  H   H25       1.0  0.54800  0.01720  0.66900  1.0000
  H   H26       1.0  0.49400  0.54300  0.67600  1.0000
  H   H27       1.0  0.00000  0.40300  0.71400  1.0000
  H   H28       1.0  0.22100  0.10500  0.73700  1.0000
  H   H29       1.0  0.38500  0.91900  0.74200  1.0000
  H   H30       1.0  0.86800  0.32400  0.81900  1.0000
  H   H31       1.0  0.34800  0.33100  0.87900  1.0000
  H   H32       1.0  0.77900  0.51600  0.88400  1.0000
  H   H33       1.0  0.63300  0.11600  0.89500  1.0000
  H   H34       1.0  0.38500  0.74200  0.91900  1.0000
  H   H35       1.0  0.13200  0.45700  0.95100  1.0000
  H   H36       1.0  0.65200  0.53100  0.98300  1.0000
  P   P1        1.0  0.00000  0.79000  0.14800  1.0000
  P   P2        1.0  0.35800  0.21000  0.21000  1.0000
  P   P3        1.0  0.00000  0.14800  0.79000  1.0000
  P   P4        1.0  0.64200  0.85200  0.85200  1.0000
  Tc  Tc1       1.0  0.00000  0.00000  0.00000  1.0000
