data_image0
_chemical_formula_structural       C8H24MnN2Se10Sn4
_chemical_formula_sum              "C8 H24 Mn1 N2 Se10 Sn4"
_cell_length_a       10.4986
_cell_length_b       9.97399
_cell_length_c       9.97399
_cell_angle_alpha    90
_cell_angle_beta     118.36
_cell_angle_gamma    118.36

_space_group_name_H-M_alt    "P 1"
_space_group_IT_number       1

loop_
  _space_group_symop_operation_xyz
  'x, y, z'

loop_
  _atom_site_type_symbol
  _atom_site_label
  _atom_site_symmetry_multiplicity
  _atom_site_fract_x
  _atom_site_fract_y
  _atom_site_fract_z
  _atom_site_occupancy
  C   C1        1.0  0.88800  0.00919  0.04830  1.0000
  C   C2        1.0  0.11200  0.95200  0.12100  1.0000
  C   C3        1.0  0.38800  0.57700  0.15800  1.0000
  C   C4        1.0  0.61200  0.84200  0.18900  1.0000
  C   C5        1.0  0.38800  0.81100  0.23000  1.0000
  C   C6        1.0  0.61200  0.77000  0.42300  1.0000
  C   C7        1.0  0.88800  0.87900  0.84000  1.0000
  C   C8        1.0  0.11200  0.16000  0.99100  1.0000
  H   H1        1.0  0.31100  0.56700  0.03130  1.0000
  H   H2        1.0  0.52900  0.82400  0.06200  1.0000
  H   H3        1.0  0.81500  0.89300  0.06240  1.0000
  H   H4        1.0  0.18500  0.93800  0.07800  1.0000
  H   H5        1.0  0.30500  0.79100  0.10200  1.0000
  H   H6        1.0  0.18500  0.24700  0.10700  1.0000
  H   H7        1.0  0.03040  0.83900  0.13500  1.0000
  H   H8        1.0  0.97000  0.10400  0.16100  1.0000
  H   H9        1.0  0.47100  0.53300  0.17600  1.0000
  H   H10       1.0  0.30500  0.51400  0.20300  1.0000
  H   H11       1.0  0.69500  0.79700  0.20900  1.0000
  H   H12       1.0  0.20100  0.04600  0.23500  1.0000
  H   H13       1.0  0.68900  0.96900  0.25600  1.0000
  H   H14       1.0  0.31100  0.74400  0.28000  1.0000
  H   H15       1.0  0.47100  0.93800  0.29500  1.0000
  H   H16       1.0  0.68900  0.72000  0.43300  1.0000
  H   H17       1.0  0.52900  0.70500  0.46700  1.0000
  H   H18       1.0  0.69500  0.89800  0.48600  1.0000
  H   H19       1.0  0.81500  0.92200  0.75300  1.0000
  H   H20       1.0  0.97000  0.86500  0.80900  1.0000
  H   H21       1.0  0.79900  0.76500  0.84500  1.0000
  H   H22       1.0  0.03040  0.19100  0.89600  1.0000
  H   H23       1.0  0.79900  0.03430  0.95400  1.0000
  H   H24       1.0  0.20100  0.15500  0.96600  1.0000
  Mn  Mn1       1.0  0.00000  0.50000  0.50000  1.0000
  N   N1        1.0  0.00000  0.00000  0.00000  1.0000
  N   N2        1.0  0.50000  0.75000  0.25000  1.0000
  Se  Se1       1.0  0.50000  0.14000  0.03140  1.0000
  Se  Se2       1.0  0.85800  0.61700  0.30100  1.0000
  Se  Se3       1.0  0.14200  0.44300  0.38300  1.0000
  Se  Se4       1.0  0.50000  0.36000  0.46800  1.0000
  Se  Se5       1.0  0.11000  0.05520  0.55500  1.0000
  Se  Se6       1.0  0.85800  0.24100  0.55700  1.0000
  Se  Se7       1.0  0.50000  0.96900  0.64000  1.0000
  Se  Se8       1.0  0.14200  0.69900  0.75900  1.0000
  Se  Se9       1.0  0.50000  0.53200  0.86000  1.0000
  Se  Se10      1.0  0.89000  0.44500  0.94500  1.0000
  Sn  Sn1       1.0  0.68700  0.42400  0.03170  1.0000
  Sn  Sn2       1.0  0.31300  0.34500  0.57600  1.0000
  Sn  Sn3       1.0  0.68700  0.26200  0.65500  1.0000
  Sn  Sn4       1.0  0.31300  0.96800  0.73800  1.0000
