data_image0
_chemical_formula_structural       C4H12N20O16
_chemical_formula_sum              "C4 H12 N20 O16"
_cell_length_a       9.40031
_cell_length_b       10.1766
_cell_length_c       4.84513
_cell_angle_alpha    90
_cell_angle_beta     90
_cell_angle_gamma    90

_space_group_name_H-M_alt    "P 1"
_space_group_IT_number       1

loop_
  _space_group_symop_operation_xyz
  'x, y, z'

loop_
  _atom_site_type_symbol
  _atom_site_label
  _atom_site_symmetry_multiplicity
  _atom_site_fract_x
  _atom_site_fract_y
  _atom_site_fract_z
  _atom_site_occupancy
  C   C1        1.0  0.54400  0.08580  0.01560  1.0000
  C   C2        1.0  0.45600  0.58600  0.48400  1.0000
  C   C3        1.0  0.95600  0.91400  0.51600  1.0000
  C   C4        1.0  0.04420  0.41400  0.98400  1.0000
  H   H1        1.0  0.83600  0.45000  0.01140  1.0000
  H   H2        1.0  0.76000  0.13600  0.05490  1.0000
  H   H3        1.0  0.61400  0.66000  0.24300  1.0000
  H   H4        1.0  0.38600  0.16000  0.25700  1.0000
  H   H5        1.0  0.24000  0.63600  0.44500  1.0000
  H   H6        1.0  0.16400  0.95000  0.48900  1.0000
  H   H7        1.0  0.66400  0.55000  0.51100  1.0000
  H   H8        1.0  0.74000  0.86400  0.55500  1.0000
  H   H9        1.0  0.88600  0.34000  0.74300  1.0000
  H   H10       1.0  0.11400  0.84000  0.75700  1.0000
  H   H11       1.0  0.26000  0.36400  0.94500  1.0000
  H   H12       1.0  0.33600  0.05010  0.98900  1.0000
  N   N1        1.0  0.41200  0.09910  0.09750  1.0000
  N   N2        1.0  0.65600  0.15400  0.12900  1.0000
  N   N3        1.0  0.34700  0.72600  0.13300  1.0000
  N   N4        1.0  0.99200  0.05170  0.14400  1.0000
  N   N5        1.0  0.09780  0.49200  0.18500  1.0000
  N   N6        1.0  0.90200  0.99200  0.31500  1.0000
  N   N7        1.0  0.00823  0.55200  0.35600  1.0000
  N   N8        1.0  0.65300  0.22600  0.36700  1.0000
  N   N9        1.0  0.34400  0.65400  0.37100  1.0000
  N   N10       1.0  0.58800  0.59900  0.40300  1.0000
  N   N11       1.0  0.08770  0.90100  0.59700  1.0000
  N   N12       1.0  0.84400  0.84600  0.62900  1.0000
  N   N13       1.0  0.15300  0.27400  0.63300  1.0000
  N   N14       1.0  0.50800  0.94800  0.64400  1.0000
  N   N15       1.0  0.40200  0.50800  0.68500  1.0000
  N   N16       1.0  0.59800  0.00803  0.81500  1.0000
  N   N17       1.0  0.49200  0.44800  0.85600  1.0000
  N   N18       1.0  0.84700  0.77400  0.86700  1.0000
  N   N19       1.0  0.15600  0.34600  0.87100  1.0000
  N   N20       1.0  0.91200  0.40100  0.90300  1.0000
  O   O1        1.0  0.46000  0.73500  0.00285  1.0000
  O   O2        1.0  0.43200  0.38000  0.04200  1.0000
  O   O3        1.0  0.23200  0.77600  0.06900  1.0000
  O   O4        1.0  0.12400  0.04210  0.15400  1.0000
  O   O5        1.0  0.87600  0.54200  0.34600  1.0000
  O   O6        1.0  0.76800  0.27600  0.43100  1.0000
  O   O7        1.0  0.56800  0.88000  0.45800  1.0000
  O   O8        1.0  0.54000  0.23500  0.49700  1.0000
  O   O9        1.0  0.03990  0.26500  0.50300  1.0000
  O   O10       1.0  0.06810  0.62000  0.54200  1.0000
  O   O11       1.0  0.26800  0.22400  0.56900  1.0000
  O   O12       1.0  0.37600  0.95800  0.65400  1.0000
  O   O13       1.0  0.62400  0.45800  0.84600  1.0000
  O   O14       1.0  0.73200  0.72400  0.93100  1.0000
  O   O15       1.0  0.93200  0.12000  0.95800  1.0000
  O   O16       1.0  0.96000  0.76500  0.99700  1.0000
