data_image0
_chemical_formula_structural       C6H6O12Sc2
_chemical_formula_sum              "C6 H6 O12 Sc2"
_cell_length_a       6.63465
_cell_length_b       6.63465
_cell_length_c       6.63465
_cell_angle_alpha    100.761
_cell_angle_beta     100.761
_cell_angle_gamma    100.761

_space_group_name_H-M_alt    "P 1"
_space_group_IT_number       1

loop_
  _space_group_symop_operation_xyz
  'x, y, z'

loop_
  _atom_site_type_symbol
  _atom_site_label
  _atom_site_symmetry_multiplicity
  _atom_site_fract_x
  _atom_site_fract_y
  _atom_site_fract_z
  _atom_site_occupancy
  C   C1        1.0  0.47500  0.25000  0.02500  1.0000
  C   C2        1.0  0.02510  0.47500  0.25000  1.0000
  C   C3        1.0  0.25000  0.02510  0.47500  1.0000
  C   C4        1.0  0.75000  0.97500  0.52500  1.0000
  C   C5        1.0  0.97500  0.52500  0.75000  1.0000
  C   C6        1.0  0.52500  0.75000  0.97500  1.0000
  H   H1        1.0  0.41700  0.75000  0.08270  1.0000
  H   H2        1.0  0.91700  0.58300  0.25000  1.0000
  H   H3        1.0  0.75000  0.08270  0.41700  1.0000
  H   H4        1.0  0.25000  0.91700  0.58300  1.0000
  H   H5        1.0  0.08270  0.41700  0.75000  1.0000
  H   H6        1.0  0.58300  0.25000  0.91700  1.0000
  O   O1        1.0  0.69500  0.89100  0.03160  1.0000
  O   O2        1.0  0.96800  0.30500  0.10900  1.0000
  O   O3        1.0  0.53200  0.39100  0.19500  1.0000
  O   O4        1.0  0.10900  0.96800  0.30500  1.0000
  O   O5        1.0  0.19500  0.53200  0.39100  1.0000
  O   O6        1.0  0.60900  0.80500  0.46800  1.0000
  O   O7        1.0  0.39100  0.19500  0.53200  1.0000
  O   O8        1.0  0.80500  0.46800  0.60900  1.0000
  O   O9        1.0  0.89100  0.03160  0.69500  1.0000
  O   O10       1.0  0.46800  0.60900  0.80500  1.0000
  O   O11       1.0  0.03160  0.69500  0.89100  1.0000
  O   O12       1.0  0.30500  0.10900  0.96800  1.0000
  Sc  Sc1       1.0  0.00000  0.00000  0.00000  1.0000
  Sc  Sc2       1.0  0.50000  0.50000  0.50000  1.0000
