data_image0
_chemical_formula_structural       C8H24N16O4
_chemical_formula_sum              "C8 H24 N16 O4"
_cell_length_a       3.67748
_cell_length_b       10.9955
_cell_length_c       10.7163
_cell_angle_alpha    90
_cell_angle_beta     91.1609
_cell_angle_gamma    90

_space_group_name_H-M_alt    "P 1"
_space_group_IT_number       1

loop_
  _space_group_symop_operation_xyz
  'x, y, z'

loop_
  _atom_site_type_symbol
  _atom_site_label
  _atom_site_symmetry_multiplicity
  _atom_site_fract_x
  _atom_site_fract_y
  _atom_site_fract_z
  _atom_site_occupancy
  C   C1        1.0  0.82500  0.24900  0.08950  1.0000
  C   C2        1.0  0.90400  0.83800  0.23800  1.0000
  C   C3        1.0  0.09560  0.33800  0.26200  1.0000
  C   C4        1.0  0.17500  0.74900  0.41100  1.0000
  C   C5        1.0  0.82500  0.25100  0.58900  1.0000
  C   C6        1.0  0.90400  0.66200  0.73800  1.0000
  C   C7        1.0  0.09560  0.16200  0.76200  1.0000
  C   C8        1.0  0.17500  0.75100  0.91100  1.0000
  H   H1        1.0  0.40700  0.86000  0.04630  1.0000
  H   H2        1.0  0.47800  0.61200  0.08900  1.0000
  H   H3        1.0  0.73600  0.06420  0.09030  1.0000
  H   H4        1.0  0.77400  0.49400  0.10400  1.0000
  H   H5        1.0  0.82700  0.62100  0.19900  1.0000
  H   H6        1.0  0.48500  0.52000  0.21800  1.0000
  H   H7        1.0  0.51500  0.02030  0.28200  1.0000
  H   H8        1.0  0.17300  0.12100  0.30100  1.0000
  H   H9        1.0  0.22600  0.99400  0.39600  1.0000
  H   H10       1.0  0.26400  0.56400  0.41000  1.0000
  H   H11       1.0  0.52200  0.11200  0.41100  1.0000
  H   H12       1.0  0.59300  0.36000  0.45400  1.0000
  H   H13       1.0  0.40700  0.64000  0.54600  1.0000
  H   H14       1.0  0.47800  0.88800  0.58900  1.0000
  H   H15       1.0  0.73600  0.43600  0.59000  1.0000
  H   H16       1.0  0.77400  0.00600  0.60400  1.0000
  H   H17       1.0  0.82700  0.87900  0.69900  1.0000
  H   H18       1.0  0.48500  0.98000  0.71800  1.0000
  H   H19       1.0  0.51500  0.48000  0.78200  1.0000
  H   H20       1.0  0.17300  0.37900  0.80100  1.0000
  H   H21       1.0  0.22600  0.50600  0.89600  1.0000
  H   H22       1.0  0.26400  0.93600  0.91000  1.0000
  H   H23       1.0  0.52200  0.38800  0.91100  1.0000
  H   H24       1.0  0.59300  0.14000  0.95400  1.0000
  N   N1        1.0  0.69900  0.14400  0.04230  1.0000
  N   N2        1.0  0.64400  0.56300  0.15200  1.0000
  N   N3        1.0  0.76600  0.91900  0.18200  1.0000
  N   N4        1.0  0.95500  0.24200  0.21100  1.0000
  N   N5        1.0  0.04480  0.74200  0.28900  1.0000
  N   N6        1.0  0.23400  0.41900  0.31800  1.0000
  N   N7        1.0  0.35600  0.06340  0.34800  1.0000
  N   N8        1.0  0.30100  0.64400  0.45800  1.0000
  N   N9        1.0  0.69900  0.35600  0.54200  1.0000
  N   N10       1.0  0.64400  0.93700  0.65200  1.0000
  N   N11       1.0  0.76600  0.58100  0.68200  1.0000
  N   N12       1.0  0.95500  0.25800  0.71100  1.0000
  N   N13       1.0  0.04480  0.75800  0.78900  1.0000
  N   N14       1.0  0.23400  0.08080  0.81800  1.0000
  N   N15       1.0  0.35600  0.43700  0.84800  1.0000
  N   N16       1.0  0.30100  0.85600  0.95800  1.0000
  O   O1        1.0  0.82200  0.34800  0.02720  1.0000
  O   O2        1.0  0.17800  0.84800  0.47300  1.0000
  O   O3        1.0  0.82200  0.15200  0.52700  1.0000
  O   O4        1.0  0.17800  0.65200  0.97300  1.0000
