data_image0
_chemical_formula_structural       C12H18K6O6S12
_chemical_formula_sum              "C12 H18 K6 O6 S12"
_cell_length_a       10.4069
_cell_length_b       13.5015
_cell_length_c       6.55494
_cell_angle_alpha    97.9532
_cell_angle_beta     96.0371
_cell_angle_gamma    71.1722

_space_group_name_H-M_alt    "P 1"
_space_group_IT_number       1

loop_
  _space_group_symop_operation_xyz
  'x, y, z'

loop_
  _atom_site_type_symbol
  _atom_site_label
  _atom_site_symmetry_multiplicity
  _atom_site_fract_x
  _atom_site_fract_y
  _atom_site_fract_z
  _atom_site_occupancy
  C   C1        1.0  0.81800  0.37600  0.06490  1.0000
  C   C2        1.0  0.07370  0.09850  0.08180  1.0000
  C   C3        1.0  0.87000  0.78000  0.10700  1.0000
  C   C4        1.0  0.58800  0.14400  0.29400  1.0000
  C   C5        1.0  0.68500  0.50500  0.32400  1.0000
  C   C6        1.0  0.22600  0.85100  0.45300  1.0000
  C   C7        1.0  0.77400  0.14900  0.54700  1.0000
  C   C8        1.0  0.31500  0.49500  0.67600  1.0000
  C   C9        1.0  0.41200  0.85600  0.70600  1.0000
  C   C10       1.0  0.13000  0.22000  0.89300  1.0000
  C   C11       1.0  0.92600  0.90200  0.91800  1.0000
  C   C12       1.0  0.18200  0.62400  0.93500  1.0000
  H   H1        1.0  0.01560  0.90500  0.02060  1.0000
  H   H2        1.0  0.16200  0.03150  0.03510  1.0000
  H   H3        1.0  0.90400  0.40700  0.08130  1.0000
  H   H4        1.0  0.20300  0.64900  0.09850  1.0000
  H   H5        1.0  0.83700  0.31100  0.15800  1.0000
  H   H6        1.0  0.05380  0.09920  0.24300  1.0000
  H   H7        1.0  0.21000  0.85600  0.28700  1.0000
  H   H8        1.0  0.85300  0.08710  0.46400  1.0000
  H   H9        1.0  0.22700  0.77300  0.48700  1.0000
  H   H10       1.0  0.77300  0.22700  0.51300  1.0000
  H   H11       1.0  0.14700  0.91300  0.53600  1.0000
  H   H12       1.0  0.79000  0.14400  0.71300  1.0000
  H   H13       1.0  0.94600  0.90100  0.75700  1.0000
  H   H14       1.0  0.16300  0.68900  0.84200  1.0000
  H   H15       1.0  0.79700  0.35100  0.90200  1.0000
  H   H16       1.0  0.09580  0.59300  0.91900  1.0000
  H   H17       1.0  0.83800  0.96800  0.96500  1.0000
  H   H18       1.0  0.98400  0.09520  0.97900  1.0000
  K   K1        1.0  0.43500  0.40100  0.16200  1.0000
  K   K2        1.0  0.55200  0.86900  0.24000  1.0000
  K   K3        1.0  0.13900  0.32600  0.42200  1.0000
  K   K4        1.0  0.86100  0.67400  0.57800  1.0000
  K   K5        1.0  0.44800  0.13100  0.76000  1.0000
  K   K6        1.0  0.56500  0.59900  0.83800  1.0000
  O   O1        1.0  0.10000  0.19700  0.07560  1.0000
  O   O2        1.0  0.69500  0.45900  0.12400  1.0000
  O   O3        1.0  0.64300  0.13400  0.49100  1.0000
  O   O4        1.0  0.35700  0.86600  0.50900  1.0000
  O   O5        1.0  0.30500  0.54100  0.87600  1.0000
  O   O6        1.0  0.90000  0.80300  0.92400  1.0000
  S   S1        1.0  0.83500  0.66400  0.08190  1.0000
  S   S2        1.0  0.67000  0.17400  0.11500  1.0000
  S   S3        1.0  0.43200  0.12600  0.25700  1.0000
  S   S4        1.0  0.87100  0.86200  0.32500  1.0000
  S   S5        1.0  0.54400  0.61100  0.35300  1.0000
  S   S6        1.0  0.19700  0.54600  0.48900  1.0000
  S   S7        1.0  0.80300  0.45400  0.51100  1.0000
  S   S8        1.0  0.45600  0.38900  0.64700  1.0000
  S   S9        1.0  0.12900  0.13800  0.67500  1.0000
  S   S10       1.0  0.56800  0.87400  0.74300  1.0000
  S   S11       1.0  0.33000  0.82600  0.88500  1.0000
  S   S12       1.0  0.16500  0.33600  0.91800  1.0000
