data_image0
_chemical_formula_structural       C8H24Mn2N20
_chemical_formula_sum              "C8 H24 Mn2 N20"
_cell_length_a       5.98865
_cell_length_b       12.9414
_cell_length_c       6.1073
_cell_angle_alpha    90
_cell_angle_beta     89.8504
_cell_angle_gamma    90

_space_group_name_H-M_alt    "P 1"
_space_group_IT_number       1

loop_
  _space_group_symop_operation_xyz
  'x, y, z'

loop_
  _atom_site_type_symbol
  _atom_site_label
  _atom_site_symmetry_multiplicity
  _atom_site_fract_x
  _atom_site_fract_y
  _atom_site_fract_z
  _atom_site_occupancy
  C   C1        1.0  0.61600  0.50000  0.22300  1.0000
  C   C2        1.0  0.28100  0.00181  0.39200  1.0000
  C   C3        1.0  0.39900  0.60100  0.48400  1.0000
  C   C4        1.0  0.38400  0.41100  0.49100  1.0000
  C   C5        1.0  0.61600  0.91100  0.50900  1.0000
  C   C6        1.0  0.60100  0.10100  0.51600  1.0000
  C   C7        1.0  0.71900  0.50200  0.60800  1.0000
  C   C8        1.0  0.38400  0.00000  0.77700  1.0000
  H   H1        1.0  0.47600  0.48400  0.11400  1.0000
  H   H2        1.0  0.69200  0.57400  0.18500  1.0000
  H   H3        1.0  0.73700  0.43700  0.21300  1.0000
  H   H4        1.0  0.34700  0.01420  0.22700  1.0000
  H   H5        1.0  0.67300  0.91100  0.33900  1.0000
  H   H6        1.0  0.67500  0.10000  0.35200  1.0000
  H   H7        1.0  0.26900  0.60500  0.35900  1.0000
  H   H8        1.0  0.24300  0.41500  0.37700  1.0000
  H   H9        1.0  0.20100  0.92600  0.40400  1.0000
  H   H10       1.0  0.16800  0.06460  0.43500  1.0000
  H   H11       1.0  0.48400  0.34200  0.45800  1.0000
  H   H12       1.0  0.51400  0.66600  0.46700  1.0000
  H   H13       1.0  0.48600  0.16600  0.53300  1.0000
  H   H14       1.0  0.51600  0.84200  0.54200  1.0000
  H   H15       1.0  0.83200  0.56500  0.56500  1.0000
  H   H16       1.0  0.79900  0.42600  0.59600  1.0000
  H   H17       1.0  0.75700  0.91500  0.62300  1.0000
  H   H18       1.0  0.73100  0.10500  0.64100  1.0000
  H   H19       1.0  0.32500  0.60000  0.64800  1.0000
  H   H20       1.0  0.32700  0.41100  0.66100  1.0000
  H   H21       1.0  0.65300  0.51400  0.77300  1.0000
  H   H22       1.0  0.26300  0.93700  0.78700  1.0000
  H   H23       1.0  0.30800  0.07440  0.81500  1.0000
  H   H24       1.0  0.52400  0.98400  0.88600  1.0000
  Mn  Mn1       1.0  0.00283  0.25400  0.00251  1.0000
  Mn  Mn2       1.0  0.99700  0.75400  0.99700  1.0000
  N   N1        1.0  0.49600  0.75300  0.00026  1.0000
  N   N2        1.0  0.89400  0.91300  0.01690  1.0000
  N   N3        1.0  0.90700  0.00410  0.03520  1.0000
  N   N4        1.0  0.91000  0.09480  0.05720  1.0000
  N   N5        1.0  0.34600  0.21900  0.09180  1.0000
  N   N6        1.0  0.33700  0.78700  0.09240  1.0000
  N   N7        1.0  0.90800  0.72300  0.33800  1.0000
  N   N8        1.0  0.90400  0.28300  0.34600  1.0000
  N   N9        1.0  0.52800  0.50400  0.45200  1.0000
  N   N10       1.0  0.00166  0.75300  0.49600  1.0000
  N   N11       1.0  0.99800  0.25300  0.50400  1.0000
  N   N12       1.0  0.47200  0.00358  0.54800  1.0000
  N   N13       1.0  0.09580  0.78300  0.65400  1.0000
  N   N14       1.0  0.09230  0.22300  0.66200  1.0000
  N   N15       1.0  0.66300  0.28700  0.90800  1.0000
  N   N16       1.0  0.65400  0.71900  0.90800  1.0000
  N   N17       1.0  0.09050  0.59500  0.94300  1.0000
  N   N18       1.0  0.09260  0.50400  0.96500  1.0000
  N   N19       1.0  0.10600  0.41300  0.98300  1.0000
  N   N20       1.0  0.50400  0.25300  0.00000  1.0000
