data_image0
_chemical_formula_structural       C8H4Na8O28Y4
_chemical_formula_sum              "C8 H4 Na8 O28 Y4"
_cell_length_a       6.08091
_cell_length_b       9.13866
_cell_length_c       11.0706
_cell_angle_alpha    95.2483
_cell_angle_beta     90
_cell_angle_gamma    109.433

_space_group_name_H-M_alt    "P 1"
_space_group_IT_number       1

loop_
  _space_group_symop_operation_xyz
  'x, y, z'

loop_
  _atom_site_type_symbol
  _atom_site_label
  _atom_site_symmetry_multiplicity
  _atom_site_fract_x
  _atom_site_fract_y
  _atom_site_fract_z
  _atom_site_occupancy
  C   C1        1.0  0.14100  0.42200  0.07710  1.0000
  C   C2        1.0  0.36300  0.13300  0.11800  1.0000
  C   C3        1.0  0.23000  0.86700  0.38200  1.0000
  C   C4        1.0  0.71900  0.57800  0.42300  1.0000
  C   C5        1.0  0.28100  0.42200  0.57700  1.0000
  C   C6        1.0  0.77000  0.13300  0.61800  1.0000
  C   C7        1.0  0.63700  0.86700  0.88200  1.0000
  C   C8        1.0  0.85900  0.57800  0.92300  1.0000
  H   H1        1.0  0.73800  0.79500  0.11700  1.0000
  H   H2        1.0  0.94300  0.20500  0.38300  1.0000
  H   H3        1.0  0.05690  0.79500  0.61700  1.0000
  H   H4        1.0  0.26200  0.20500  0.88300  1.0000
  Na  Na1       1.0  0.28800  0.78000  0.12000  1.0000
  Na  Na2       1.0  0.64600  0.46900  0.14400  1.0000
  Na  Na3       1.0  0.17700  0.53100  0.35600  1.0000
  Na  Na4       1.0  0.50900  0.22000  0.38000  1.0000
  Na  Na5       1.0  0.49100  0.78000  0.62000  1.0000
  Na  Na6       1.0  0.82300  0.46900  0.64400  1.0000
  Na  Na7       1.0  0.35400  0.53100  0.85600  1.0000
  Na  Na8       1.0  0.71200  0.22000  0.88000  1.0000
  O   O1        1.0  0.91000  0.69600  0.00889  1.0000
  O   O2        1.0  0.31500  0.54400  0.06860  1.0000
  O   O3        1.0  0.19300  0.00995  0.07130  1.0000
  O   O4        1.0  0.57000  0.16600  0.08020  1.0000
  O   O5        1.0  0.69600  0.87300  0.17100  1.0000
  O   O6        1.0  0.00772  0.40200  0.17100  1.0000
  O   O7        1.0  0.30900  0.22100  0.20200  1.0000
  O   O8        1.0  0.08770  0.77900  0.29800  1.0000
  O   O9        1.0  0.60500  0.59800  0.32900  1.0000
  O   O10       1.0  0.82400  0.12700  0.32900  1.0000
  O   O11       1.0  0.40500  0.83400  0.42000  1.0000
  O   O12       1.0  0.18300  0.99000  0.42900  1.0000
  O   O13       1.0  0.77000  0.45600  0.43100  1.0000
  O   O14       1.0  0.21400  0.30400  0.49100  1.0000
  O   O15       1.0  0.78600  0.69600  0.50900  1.0000
  O   O16       1.0  0.23000  0.54400  0.56900  1.0000
  O   O17       1.0  0.81700  0.00995  0.57100  1.0000
  O   O18       1.0  0.59500  0.16600  0.58000  1.0000
  O   O19       1.0  0.17600  0.87300  0.67100  1.0000
  O   O20       1.0  0.39500  0.40200  0.67100  1.0000
  O   O21       1.0  0.91200  0.22100  0.70200  1.0000
  O   O22       1.0  0.69100  0.77900  0.79800  1.0000
  O   O23       1.0  0.99200  0.59800  0.82900  1.0000
  O   O24       1.0  0.30400  0.12700  0.82900  1.0000
  O   O25       1.0  0.43000  0.83400  0.92000  1.0000
  O   O26       1.0  0.80700  0.99000  0.92900  1.0000
  O   O27       1.0  0.68500  0.45600  0.93100  1.0000
  O   O28       1.0  0.08980  0.30400  0.99100  1.0000
  Y   Y1        1.0  0.90300  0.12400  0.13100  1.0000
  Y   Y2        1.0  0.77900  0.87600  0.36900  1.0000
  Y   Y3        1.0  0.22100  0.12400  0.63100  1.0000
  Y   Y4        1.0  0.09700  0.87600  0.86900  1.0000
