data_image0
_chemical_formula_structural       C8H10K2O30U4
_chemical_formula_sum              "C8 H10 K2 O30 U4"
_cell_length_a       5.47352
_cell_length_b       13.5129
_cell_length_c       9.21722
_cell_angle_alpha    90
_cell_angle_beta     101.487
_cell_angle_gamma    90

_space_group_name_H-M_alt    "P 1"
_space_group_IT_number       1

loop_
  _space_group_symop_operation_xyz
  'x, y, z'

loop_
  _atom_site_type_symbol
  _atom_site_label
  _atom_site_symmetry_multiplicity
  _atom_site_fract_x
  _atom_site_fract_y
  _atom_site_fract_z
  _atom_site_occupancy
  C   C1        1.0  0.01870  0.04830  0.04350  1.0000
  C   C2        1.0  0.01870  0.45200  0.04350  1.0000
  C   C3        1.0  0.53800  0.05190  0.48000  1.0000
  C   C4        1.0  0.53800  0.44800  0.48000  1.0000
  C   C5        1.0  0.46200  0.55200  0.52000  1.0000
  C   C6        1.0  0.46200  0.94800  0.52000  1.0000
  C   C7        1.0  0.98100  0.54800  0.95600  1.0000
  C   C8        1.0  0.98100  0.95200  0.95600  1.0000
  H   H1        1.0  0.47200  0.75000  0.07790  1.0000
  H   H2        1.0  0.81400  0.19300  0.08830  1.0000
  H   H3        1.0  0.81400  0.30700  0.08830  1.0000
  H   H4        1.0  0.25400  0.19400  0.19800  1.0000
  H   H5        1.0  0.25400  0.30600  0.19800  1.0000
  H   H6        1.0  0.74600  0.69400  0.80200  1.0000
  H   H7        1.0  0.74600  0.80600  0.80200  1.0000
  H   H8        1.0  0.18600  0.69300  0.91200  1.0000
  H   H9        1.0  0.18600  0.80700  0.91200  1.0000
  H   H10       1.0  0.52800  0.25000  0.92200  1.0000
  K   K1        1.0  0.81400  0.25000  0.39900  1.0000
  K   K2        1.0  0.18600  0.75000  0.60100  1.0000
  O   O1        1.0  0.87600  0.61900  0.00996  1.0000
  O   O2        1.0  0.87600  0.88100  0.00996  1.0000
  O   O3        1.0  0.70300  0.25000  0.08170  1.0000
  O   O4        1.0  0.42900  0.55500  0.12400  1.0000
  O   O5        1.0  0.42900  0.94500  0.12400  1.0000
  O   O6        1.0  0.93900  0.05280  0.16300  1.0000
  O   O7        1.0  0.93900  0.44700  0.16300  1.0000
  O   O8        1.0  0.60200  0.75000  0.17400  1.0000
  O   O9        1.0  0.25700  0.25000  0.26500  1.0000
  O   O10       1.0  0.00297  0.63000  0.35200  1.0000
  O   O11       1.0  0.00297  0.87000  0.35200  1.0000
  O   O12       1.0  0.66200  0.05800  0.37900  1.0000
  O   O13       1.0  0.66200  0.44200  0.37900  1.0000
  O   O14       1.0  0.52700  0.62300  0.44800  1.0000
  O   O15       1.0  0.52700  0.87700  0.44800  1.0000
  O   O16       1.0  0.47300  0.12300  0.55200  1.0000
  O   O17       1.0  0.47300  0.37700  0.55200  1.0000
  O   O18       1.0  0.33800  0.55800  0.62100  1.0000
  O   O19       1.0  0.33800  0.94200  0.62100  1.0000
  O   O20       1.0  0.99700  0.13000  0.64800  1.0000
  O   O21       1.0  0.99700  0.37000  0.64800  1.0000
  O   O22       1.0  0.74300  0.75000  0.73500  1.0000
  O   O23       1.0  0.39800  0.25000  0.82600  1.0000
  O   O24       1.0  0.06140  0.55300  0.83700  1.0000
  O   O25       1.0  0.06140  0.94700  0.83700  1.0000
  O   O26       1.0  0.57100  0.05470  0.87600  1.0000
  O   O27       1.0  0.57100  0.44500  0.87600  1.0000
  O   O28       1.0  0.29700  0.75000  0.91800  1.0000
  O   O29       1.0  0.12400  0.11900  0.99000  1.0000
  O   O30       1.0  0.12400  0.38100  0.99000  1.0000
  U   U1        1.0  0.71700  0.59200  0.23800  1.0000
  U   U2        1.0  0.71700  0.90800  0.23800  1.0000
  U   U3        1.0  0.28300  0.09160  0.76200  1.0000
  U   U4        1.0  0.28300  0.40800  0.76200  1.0000
