data_image0
_chemical_formula_structural       C8H8K4Mo4O30
_chemical_formula_sum              "C8 H8 K4 Mo4 O30"
_cell_length_a       7.37704
_cell_length_b       14.0028
_cell_length_c       6.34227
_cell_angle_alpha    90
_cell_angle_beta     92.3526
_cell_angle_gamma    90

_space_group_name_H-M_alt    "P 1"
_space_group_IT_number       1

loop_
  _space_group_symop_operation_xyz
  'x, y, z'

loop_
  _atom_site_type_symbol
  _atom_site_label
  _atom_site_symmetry_multiplicity
  _atom_site_fract_x
  _atom_site_fract_y
  _atom_site_fract_z
  _atom_site_occupancy
  C   C1        1.0  0.02880  0.32100  0.23500  1.0000
  C   C2        1.0  0.00643  0.43100  0.24600  1.0000
  C   C3        1.0  0.99400  0.93100  0.25400  1.0000
  C   C4        1.0  0.97100  0.82100  0.26500  1.0000
  C   C5        1.0  0.02880  0.17900  0.73500  1.0000
  C   C6        1.0  0.00643  0.06930  0.74600  1.0000
  C   C7        1.0  0.99400  0.56900  0.75400  1.0000
  C   C8        1.0  0.97100  0.67900  0.76500  1.0000
  H   H1        1.0  0.23700  0.18200  0.24100  1.0000
  H   H2        1.0  0.21600  0.06430  0.24900  1.0000
  H   H3        1.0  0.78400  0.56400  0.25100  1.0000
  H   H4        1.0  0.76300  0.68200  0.25900  1.0000
  H   H5        1.0  0.23700  0.31800  0.74100  1.0000
  H   H6        1.0  0.21600  0.43600  0.74900  1.0000
  H   H7        1.0  0.78400  0.93600  0.75100  1.0000
  H   H8        1.0  0.76300  0.81800  0.75900  1.0000
  K   K1        1.0  0.30600  0.63500  0.15200  1.0000
  K   K2        1.0  0.69400  0.13500  0.34800  1.0000
  K   K3        1.0  0.30600  0.86500  0.65200  1.0000
  K   K4        1.0  0.69400  0.36500  0.84800  1.0000
  Mo  Mo1       1.0  0.60200  0.88900  0.12600  1.0000
  Mo  Mo2       1.0  0.39800  0.38900  0.37400  1.0000
  Mo  Mo3       1.0  0.60200  0.61100  0.62600  1.0000
  Mo  Mo4       1.0  0.39800  0.11100  0.87400  1.0000
  O   O1        1.0  0.50000  0.00000  0.00000  1.0000
  O   O2        1.0  0.45400  0.79900  0.04930  1.0000
  O   O3        1.0  0.43800  0.41100  0.11200  1.0000
  O   O4        1.0  0.90800  0.26900  0.16300  1.0000
  O   O5        1.0  0.85600  0.97500  0.17200  1.0000
  O   O6        1.0  0.86200  0.46600  0.17500  1.0000
  O   O7        1.0  0.28500  0.12000  0.19000  1.0000
  O   O8        1.0  0.81200  0.79100  0.19300  1.0000
  O   O9        1.0  0.18800  0.29100  0.30700  1.0000
  O   O10       1.0  0.71500  0.62000  0.31000  1.0000
  O   O11       1.0  0.13800  0.96600  0.32500  1.0000
  O   O12       1.0  0.14400  0.47500  0.32800  1.0000
  O   O13       1.0  0.09170  0.76900  0.33700  1.0000
  O   O14       1.0  0.56200  0.91100  0.38800  1.0000
  O   O15       1.0  0.54600  0.29900  0.45100  1.0000
  O   O16       1.0  0.50000  0.50000  0.50000  1.0000
  O   O17       1.0  0.45400  0.70100  0.54900  1.0000
  O   O18       1.0  0.43800  0.08930  0.61200  1.0000
  O   O19       1.0  0.90800  0.23100  0.66300  1.0000
  O   O20       1.0  0.85600  0.52500  0.67200  1.0000
  O   O21       1.0  0.86200  0.03380  0.67500  1.0000
  O   O22       1.0  0.28500  0.38000  0.69000  1.0000
  O   O23       1.0  0.81200  0.70900  0.69300  1.0000
  O   O24       1.0  0.18800  0.20900  0.80700  1.0000
  O   O25       1.0  0.71500  0.88000  0.81000  1.0000
  O   O26       1.0  0.13800  0.53400  0.82500  1.0000
  O   O27       1.0  0.14400  0.02490  0.82800  1.0000
  O   O28       1.0  0.09170  0.73100  0.83700  1.0000
  O   O29       1.0  0.56200  0.58900  0.88800  1.0000
  O   O30       1.0  0.54600  0.20100  0.95100  1.0000
