data_image0
_chemical_formula_structural       C8H24Mg2O12S8
_chemical_formula_sum              "C8 H24 Mg2 O12 S8"
_cell_length_a       5.71228
_cell_length_b       8.99006
_cell_length_c       12.8584
_cell_angle_alpha    103.731
_cell_angle_beta     89.9999
_cell_angle_gamma    108.531

_space_group_name_H-M_alt    "P 1"
_space_group_IT_number       1

loop_
  _space_group_symop_operation_xyz
  'x, y, z'

loop_
  _atom_site_type_symbol
  _atom_site_label
  _atom_site_symmetry_multiplicity
  _atom_site_fract_x
  _atom_site_fract_y
  _atom_site_fract_z
  _atom_site_occupancy
  C   C1        1.0  0.00406  0.38700  0.00054  1.0000
  C   C2        1.0  0.86600  0.49000  0.05470  1.0000
  C   C3        1.0  0.37500  0.51000  0.44500  1.0000
  C   C4        1.0  0.61700  0.61300  0.49900  1.0000
  C   C5        1.0  0.38300  0.38700  0.50100  1.0000
  C   C6        1.0  0.62500  0.49000  0.55500  1.0000
  C   C7        1.0  0.13400  0.51000  0.94500  1.0000
  C   C8        1.0  0.99600  0.61300  0.99900  1.0000
  H   H1        1.0  0.40000  0.86900  0.04420  1.0000
  H   H2        1.0  0.66100  0.83800  0.05260  1.0000
  H   H3        1.0  0.92500  0.18400  0.15600  1.0000
  H   H4        1.0  0.48800  0.24700  0.19200  1.0000
  H   H5        1.0  0.70100  0.72200  0.22000  1.0000
  H   H6        1.0  0.22800  0.14800  0.22800  1.0000
  H   H7        1.0  0.08030  0.85200  0.27200  1.0000
  H   H8        1.0  0.97800  0.27800  0.28000  1.0000
  H   H9        1.0  0.24100  0.75300  0.30800  1.0000
  H   H10       1.0  0.74100  0.81600  0.34400  1.0000
  H   H11       1.0  0.82300  0.16200  0.44700  1.0000
  H   H12       1.0  0.53000  0.13100  0.45600  1.0000
  H   H13       1.0  0.47000  0.86900  0.54400  1.0000
  H   H14       1.0  0.17700  0.83800  0.55300  1.0000
  H   H15       1.0  0.25900  0.18400  0.65600  1.0000
  H   H16       1.0  0.75900  0.24700  0.69200  1.0000
  H   H17       1.0  0.02170  0.72200  0.72000  1.0000
  H   H18       1.0  0.92000  0.14800  0.72800  1.0000
  H   H19       1.0  0.77200  0.85200  0.77200  1.0000
  H   H20       1.0  0.29900  0.27800  0.78000  1.0000
  H   H21       1.0  0.51200  0.75300  0.80800  1.0000
  H   H22       1.0  0.07490  0.81600  0.84400  1.0000
  H   H23       1.0  0.33900  0.16200  0.94700  1.0000
  H   H24       1.0  0.60000  0.13100  0.95600  1.0000
  Mg  Mg1       1.0  0.58000  0.00000  0.25000  1.0000
  Mg  Mg2       1.0  0.42000  0.00000  0.75000  1.0000
  O   O1        1.0  0.55400  0.89900  0.08940  1.0000
  O   O2        1.0  0.40300  0.15200  0.22000  1.0000
  O   O3        1.0  0.92400  0.16600  0.23000  1.0000
  O   O4        1.0  0.75800  0.83400  0.27000  1.0000
  O   O5        1.0  0.25100  0.84800  0.28000  1.0000
  O   O6        1.0  0.65500  0.10100  0.41100  1.0000
  O   O7        1.0  0.34500  0.89900  0.58900  1.0000
  O   O8        1.0  0.74900  0.15200  0.72000  1.0000
  O   O9        1.0  0.24200  0.16600  0.73000  1.0000
  O   O10       1.0  0.07650  0.83400  0.77000  1.0000
  O   O11       1.0  0.59700  0.84800  0.78000  1.0000
  O   O12       1.0  0.44600  0.10100  0.91100  1.0000
  S   S1        1.0  0.00540  0.20300  0.00066  1.0000
  S   S2        1.0  0.65000  0.47600  0.14100  1.0000
  S   S3        1.0  0.17400  0.52400  0.35900  1.0000
  S   S4        1.0  0.80200  0.79700  0.49900  1.0000
  S   S5        1.0  0.19800  0.20300  0.50100  1.0000
  S   S6        1.0  0.82600  0.47600  0.64100  1.0000
  S   S7        1.0  0.35000  0.52400  0.85900  1.0000
  S   S8        1.0  0.99500  0.79700  0.99900  1.0000
