data_image0
_chemical_formula_structural       C8H32N4O8P4
_chemical_formula_sum              "C8 H32 N4 O8 P4"
_cell_length_a       5.79079
_cell_length_b       6.10805
_cell_length_c       12.9242
_cell_angle_alpha    90
_cell_angle_beta     99.0787
_cell_angle_gamma    90

_space_group_name_H-M_alt    "P 1"
_space_group_IT_number       1

loop_
  _space_group_symop_operation_xyz
  'x, y, z'

loop_
  _atom_site_type_symbol
  _atom_site_label
  _atom_site_symmetry_multiplicity
  _atom_site_fract_x
  _atom_site_fract_y
  _atom_site_fract_z
  _atom_site_occupancy
  C   C1        1.0  0.21900  0.29200  0.00547  1.0000
  C   C2        1.0  0.64200  0.23100  0.14200  1.0000
  C   C3        1.0  0.35800  0.73100  0.35800  1.0000
  C   C4        1.0  0.78100  0.79200  0.49500  1.0000
  C   C5        1.0  0.21900  0.20800  0.50500  1.0000
  C   C6        1.0  0.64200  0.26900  0.64200  1.0000
  C   C7        1.0  0.35800  0.76900  0.85800  1.0000
  C   C8        1.0  0.78100  0.70800  0.99500  1.0000
  H   H1        1.0  0.96300  0.76000  0.02120  1.0000
  H   H2        1.0  0.22500  0.46800  0.02250  1.0000
  H   H3        1.0  0.67500  0.74400  0.05580  1.0000
  H   H4        1.0  0.72000  0.17700  0.07470  1.0000
  H   H5        1.0  0.64500  0.41100  0.14500  1.0000
  H   H6        1.0  0.26500  0.74000  0.19400  1.0000
  H   H7        1.0  0.95900  0.17300  0.23700  1.0000
  H   H8        1.0  0.24500  0.48000  0.24700  1.0000
  H   H9        1.0  0.75500  0.98000  0.25300  1.0000
  H   H10       1.0  0.04130  0.67300  0.26300  1.0000
  H   H11       1.0  0.73500  0.24000  0.30600  1.0000
  H   H12       1.0  0.35500  0.91100  0.35500  1.0000
  H   H13       1.0  0.28000  0.67700  0.42500  1.0000
  H   H14       1.0  0.32500  0.24400  0.44400  1.0000
  H   H15       1.0  0.77500  0.96800  0.47800  1.0000
  H   H16       1.0  0.03750  0.26000  0.47900  1.0000
  H   H17       1.0  0.96300  0.74000  0.52100  1.0000
  H   H18       1.0  0.22500  0.03190  0.52200  1.0000
  H   H19       1.0  0.67500  0.75600  0.55600  1.0000
  H   H20       1.0  0.72000  0.32300  0.57500  1.0000
  H   H21       1.0  0.64500  0.08860  0.64500  1.0000
  H   H22       1.0  0.26500  0.76000  0.69400  1.0000
  H   H23       1.0  0.95900  0.32700  0.73700  1.0000
  H   H24       1.0  0.24500  0.01950  0.74700  1.0000
  H   H25       1.0  0.75500  0.52000  0.75300  1.0000
  H   H26       1.0  0.04130  0.82700  0.76300  1.0000
  H   H27       1.0  0.73500  0.26000  0.80600  1.0000
  H   H28       1.0  0.35500  0.58900  0.85500  1.0000
  H   H29       1.0  0.28000  0.82300  0.92500  1.0000
  H   H30       1.0  0.32500  0.25600  0.94400  1.0000
  H   H31       1.0  0.77500  0.53200  0.97800  1.0000
  H   H32       1.0  0.03750  0.24000  0.97900  1.0000
  N   N1        1.0  0.77900  0.15000  0.24100  1.0000
  N   N2        1.0  0.22100  0.65000  0.25900  1.0000
  N   N3        1.0  0.77900  0.35000  0.74100  1.0000
  N   N4        1.0  0.22100  0.85000  0.75900  1.0000
  O   O1        1.0  0.32300  0.89600  0.09880  1.0000
  O   O2        1.0  0.23000  0.21400  0.21700  1.0000
  O   O3        1.0  0.77000  0.71400  0.28300  1.0000
  O   O4        1.0  0.67700  0.39600  0.40100  1.0000
  O   O5        1.0  0.32300  0.60400  0.59900  1.0000
  O   O6        1.0  0.23000  0.28600  0.71700  1.0000
  O   O7        1.0  0.77000  0.78600  0.78300  1.0000
  O   O8        1.0  0.67700  0.10400  0.90100  1.0000
  P   P1        1.0  0.33700  0.14100  0.12100  1.0000
  P   P2        1.0  0.66300  0.64100  0.37900  1.0000
  P   P3        1.0  0.33700  0.35900  0.62100  1.0000
  P   P4        1.0  0.66300  0.85900  0.87900  1.0000
