data_image0
_chemical_formula_structural       C8H24N8Ni2O12
_chemical_formula_sum              "C8 H24 N8 Ni2 O12"
_cell_length_a       8.65632
_cell_length_b       8.65628
_cell_length_c       7.02334
_cell_angle_alpha    90.0001
_cell_angle_beta     89.9998
_cell_angle_gamma    120

_space_group_name_H-M_alt    "P 1"
_space_group_IT_number       1

loop_
  _space_group_symop_operation_xyz
  'x, y, z'

loop_
  _atom_site_type_symbol
  _atom_site_label
  _atom_site_symmetry_multiplicity
  _atom_site_fract_x
  _atom_site_fract_y
  _atom_site_fract_z
  _atom_site_occupancy
  C   C1        1.0  0.42700  0.57200  0.28100  1.0000
  C   C2        1.0  0.42800  0.85500  0.28100  1.0000
  C   C3        1.0  0.14500  0.57300  0.28100  1.0000
  C   C4        1.0  0.66700  0.33300  0.43700  1.0000
  C   C5        1.0  0.33300  0.66700  0.56300  1.0000
  C   C6        1.0  0.85500  0.42700  0.71900  1.0000
  C   C7        1.0  0.57200  0.14500  0.71900  1.0000
  C   C8        1.0  0.57300  0.42800  0.71900  1.0000
  H   H1        1.0  0.42700  0.85500  0.12600  1.0000
  H   H2        1.0  0.42700  0.57300  0.12600  1.0000
  H   H3        1.0  0.14500  0.57300  0.12600  1.0000
  H   H4        1.0  0.56400  0.64300  0.33600  1.0000
  H   H5        1.0  0.35700  0.92100  0.33600  1.0000
  H   H6        1.0  0.07920  0.43600  0.33600  1.0000
  H   H7        1.0  0.56400  0.92100  0.33600  1.0000
  H   H8        1.0  0.35700  0.43600  0.33600  1.0000
  H   H9        1.0  0.07920  0.64300  0.33600  1.0000
  H   H10       1.0  0.73600  0.26500  0.38600  1.0000
  H   H11       1.0  0.73500  0.47100  0.38600  1.0000
  H   H12       1.0  0.52900  0.26400  0.38600  1.0000
  H   H13       1.0  0.47100  0.73600  0.61400  1.0000
  H   H14       1.0  0.26400  0.73500  0.61400  1.0000
  H   H15       1.0  0.26500  0.52900  0.61400  1.0000
  H   H16       1.0  0.92100  0.35700  0.66400  1.0000
  H   H17       1.0  0.64300  0.56400  0.66400  1.0000
  H   H18       1.0  0.43600  0.07920  0.66400  1.0000
  H   H19       1.0  0.92100  0.56400  0.66400  1.0000
  H   H20       1.0  0.64300  0.07920  0.66400  1.0000
  H   H21       1.0  0.43600  0.35700  0.66400  1.0000
  H   H22       1.0  0.85500  0.42700  0.87400  1.0000
  H   H23       1.0  0.57300  0.14500  0.87400  1.0000
  H   H24       1.0  0.57300  0.42700  0.87400  1.0000
  N   N1        1.0  0.23100  0.11500  0.16400  1.0000
  N   N2        1.0  0.88500  0.76900  0.16400  1.0000
  N   N3        1.0  0.88500  0.11500  0.16400  1.0000
  N   N4        1.0  0.33300  0.66700  0.35100  1.0000
  N   N5        1.0  0.66700  0.33300  0.64900  1.0000
  N   N6        1.0  0.11500  0.88500  0.83600  1.0000
  N   N7        1.0  0.11500  0.23100  0.83600  1.0000
  N   N8        1.0  0.76900  0.88500  0.83600  1.0000
  Ni  Ni1       1.0  0.00000  0.00000  0.00000  1.0000
  Ni  Ni2       1.0  0.00000  0.00000  0.50000  1.0000
  O   O1        1.0  0.37800  0.18900  0.08540  1.0000
  O   O2        1.0  0.81100  0.18900  0.08540  1.0000
  O   O3        1.0  0.81100  0.62200  0.08540  1.0000
  O   O4        1.0  0.23100  0.11500  0.34800  1.0000
  O   O5        1.0  0.88400  0.76900  0.34800  1.0000
  O   O6        1.0  0.88500  0.11600  0.34800  1.0000
  O   O7        1.0  0.11600  0.23100  0.65200  1.0000
  O   O8        1.0  0.11500  0.88400  0.65200  1.0000
  O   O9        1.0  0.76900  0.88500  0.65200  1.0000
  O   O10       1.0  0.18900  0.37800  0.91500  1.0000
  O   O11       1.0  0.18900  0.81100  0.91500  1.0000
  O   O12       1.0  0.62200  0.81100  0.91500  1.0000
