data_image0
_chemical_formula_structural       B6C6H30IN12Na
_chemical_formula_sum              "B6 C6 H30 I1 N12 Na1"
_cell_length_a       8.2793
_cell_length_b       8.2793
_cell_length_c       8.2793
_cell_angle_alpha    81.6894
_cell_angle_beta     81.6894
_cell_angle_gamma    81.6894

_space_group_name_H-M_alt    "P 1"
_space_group_IT_number       1

loop_
  _space_group_symop_operation_xyz
  'x, y, z'

loop_
  _atom_site_type_symbol
  _atom_site_label
  _atom_site_symmetry_multiplicity
  _atom_site_fract_x
  _atom_site_fract_y
  _atom_site_fract_z
  _atom_site_occupancy
  B   B1        1.0  0.50500  0.19900  0.06420  1.0000
  B   B2        1.0  0.06420  0.50500  0.19900  1.0000
  B   B3        1.0  0.80100  0.93600  0.49500  1.0000
  B   B4        1.0  0.19900  0.06420  0.50500  1.0000
  B   B5        1.0  0.93600  0.49500  0.80100  1.0000
  B   B6        1.0  0.49500  0.80100  0.93600  1.0000
  C   C1        1.0  0.54000  0.34700  0.14600  1.0000
  C   C2        1.0  0.14600  0.54000  0.34700  1.0000
  C   C3        1.0  0.65300  0.85400  0.46000  1.0000
  C   C4        1.0  0.34700  0.14600  0.54000  1.0000
  C   C5        1.0  0.85400  0.46000  0.65300  1.0000
  C   C6        1.0  0.46000  0.65300  0.85400  1.0000
  H   H1        1.0  0.35900  0.21400  0.05070  1.0000
  H   H2        1.0  0.15200  0.54700  0.07370  1.0000
  H   H3        1.0  0.26600  0.83100  0.10300  1.0000
  H   H4        1.0  0.83000  0.57700  0.10700  1.0000
  H   H5        1.0  0.54700  0.07370  0.15200  1.0000
  H   H6        1.0  0.89700  0.73400  0.16900  1.0000
  H   H7        1.0  0.42300  0.89300  0.17000  1.0000
  H   H8        1.0  0.41200  0.69300  0.18400  1.0000
  H   H9        1.0  0.05070  0.35900  0.21400  1.0000
  H   H10       1.0  0.83100  0.10300  0.26600  1.0000
  H   H11       1.0  0.81600  0.58800  0.30700  1.0000
  H   H12       1.0  0.21400  0.05070  0.35900  1.0000
  H   H13       1.0  0.69300  0.18400  0.41200  1.0000
  H   H14       1.0  0.89300  0.17000  0.42300  1.0000
  H   H15       1.0  0.92600  0.84800  0.45300  1.0000
  H   H16       1.0  0.07370  0.15200  0.54700  1.0000
  H   H17       1.0  0.10700  0.83000  0.57700  1.0000
  H   H18       1.0  0.30700  0.81600  0.58800  1.0000
  H   H19       1.0  0.78600  0.94900  0.64100  1.0000
  H   H20       1.0  0.18400  0.41200  0.69300  1.0000
  H   H21       1.0  0.16900  0.89700  0.73400  1.0000
  H   H22       1.0  0.94900  0.64100  0.78600  1.0000
  H   H23       1.0  0.58800  0.30700  0.81600  1.0000
  H   H24       1.0  0.57700  0.10700  0.83000  1.0000
  H   H25       1.0  0.10300  0.26600  0.83100  1.0000
  H   H26       1.0  0.45300  0.92600  0.84800  1.0000
  H   H27       1.0  0.17000  0.42300  0.89300  1.0000
  H   H28       1.0  0.73400  0.16900  0.89700  1.0000
  H   H29       1.0  0.84800  0.45300  0.92600  1.0000
  H   H30       1.0  0.64100  0.78600  0.94900  1.0000
  I   I1        1.0  0.00000  0.00000  0.00000  1.0000
  N   N1        1.0  0.39100  0.80300  0.11100  1.0000
  N   N2        1.0  0.88900  0.60900  0.19700  1.0000
  N   N3        1.0  0.56300  0.45400  0.21500  1.0000
  N   N4        1.0  0.80300  0.11100  0.39100  1.0000
  N   N5        1.0  0.54600  0.78500  0.43700  1.0000
  N   N6        1.0  0.21500  0.56300  0.45400  1.0000
  N   N7        1.0  0.78500  0.43700  0.54600  1.0000
  N   N8        1.0  0.45400  0.21500  0.56300  1.0000
  N   N9        1.0  0.19700  0.88900  0.60900  1.0000
  N   N10       1.0  0.43700  0.54600  0.78500  1.0000
  N   N11       1.0  0.11100  0.39100  0.80300  1.0000
  N   N12       1.0  0.60900  0.19700  0.88900  1.0000
  Na  Na1       1.0  0.50000  0.50000  0.50000  1.0000
