data_image0
_chemical_formula_structural       C12H12O28Sr4
_chemical_formula_sum              "C12 H12 O28 Sr4"
_cell_length_a       6.25561
_cell_length_b       16.7195
_cell_length_c       5.67664
_cell_angle_alpha    90
_cell_angle_beta     97.5563
_cell_angle_gamma    90

_space_group_name_H-M_alt    "P 1"
_space_group_IT_number       1

loop_
  _space_group_symop_operation_xyz
  'x, y, z'

loop_
  _atom_site_type_symbol
  _atom_site_label
  _atom_site_symmetry_multiplicity
  _atom_site_fract_x
  _atom_site_fract_y
  _atom_site_fract_z
  _atom_site_occupancy
  C   C1        1.0  0.13000  0.26200  0.07630  1.0000
  C   C2        1.0  0.58600  0.51800  0.09570  1.0000
  C   C3        1.0  0.85100  0.77900  0.16400  1.0000
  C   C4        1.0  0.64900  0.27900  0.33600  1.0000
  C   C5        1.0  0.91400  0.01790  0.40400  1.0000
  C   C6        1.0  0.37000  0.76200  0.42400  1.0000
  C   C7        1.0  0.63000  0.23800  0.57600  1.0000
  C   C8        1.0  0.08640  0.98200  0.59600  1.0000
  C   C9        1.0  0.35100  0.72100  0.66400  1.0000
  C   C10       1.0  0.14900  0.22100  0.83600  1.0000
  C   C11       1.0  0.41400  0.48200  0.90400  1.0000
  C   C12       1.0  0.87000  0.73800  0.92400  1.0000
  H   H1        1.0  0.35800  0.74600  0.01230  1.0000
  H   H2        1.0  0.78900  0.06990  0.03060  1.0000
  H   H3        1.0  0.36900  0.89500  0.19900  1.0000
  H   H4        1.0  0.13100  0.39500  0.30100  1.0000
  H   H5        1.0  0.71100  0.57000  0.46900  1.0000
  H   H6        1.0  0.14200  0.24600  0.48800  1.0000
  H   H7        1.0  0.85800  0.75400  0.51200  1.0000
  H   H8        1.0  0.28900  0.43000  0.53100  1.0000
  H   H9        1.0  0.86900  0.60500  0.69900  1.0000
  H   H10       1.0  0.63100  0.10500  0.80100  1.0000
  H   H11       1.0  0.21100  0.93000  0.96900  1.0000
  H   H12       1.0  0.64200  0.25400  0.98800  1.0000
  O   O1        1.0  0.78200  0.50700  0.07150  1.0000
  O   O2        1.0  0.35500  0.93600  0.07220  1.0000
  O   O3        1.0  0.07810  0.33400  0.07310  1.0000
  O   O4        1.0  0.61900  0.22900  0.15600  1.0000
  O   O5        1.0  0.81100  0.85100  0.17600  1.0000
  O   O6        1.0  0.98400  0.05600  0.23700  1.0000
  O   O7        1.0  0.32800  0.71700  0.24100  1.0000
  O   O8        1.0  0.17200  0.21700  0.25900  1.0000
  O   O9        1.0  0.51600  0.55600  0.26300  1.0000
  O   O10       1.0  0.68900  0.35100  0.32400  1.0000
  O   O11       1.0  0.88100  0.72900  0.34400  1.0000
  O   O12       1.0  0.42200  0.83400  0.42700  1.0000
  O   O13       1.0  0.14500  0.43600  0.42800  1.0000
  O   O14       1.0  0.71800  0.00668  0.42900  1.0000
  O   O15       1.0  0.28200  0.99300  0.57100  1.0000
  O   O16       1.0  0.85500  0.56400  0.57200  1.0000
  O   O17       1.0  0.57800  0.16600  0.57300  1.0000
  O   O18       1.0  0.11900  0.27100  0.65600  1.0000
  O   O19       1.0  0.31100  0.64900  0.67600  1.0000
  O   O20       1.0  0.48400  0.44400  0.73700  1.0000
  O   O21       1.0  0.82800  0.78300  0.74100  1.0000
  O   O22       1.0  0.67200  0.28300  0.75900  1.0000
  O   O23       1.0  0.01630  0.94400  0.76300  1.0000
  O   O24       1.0  0.18900  0.14900  0.82400  1.0000
  O   O25       1.0  0.38100  0.77100  0.84400  1.0000
  O   O26       1.0  0.92200  0.66600  0.92700  1.0000
  O   O27       1.0  0.64500  0.06380  0.92800  1.0000
  O   O28       1.0  0.21800  0.49300  0.92900  1.0000
  Sr  Sr1       1.0  0.38000  0.08110  0.22900  1.0000
  Sr  Sr2       1.0  0.12000  0.58100  0.27100  1.0000
  Sr  Sr3       1.0  0.88000  0.41900  0.72900  1.0000
  Sr  Sr4       1.0  0.62000  0.91900  0.77100  1.0000
