data_image0
_chemical_formula_structural       C12H8K4N12O4Pt2S12
_chemical_formula_sum              "C12 H8 K4 N12 O4 Pt2 S12"
_cell_length_a       7.13693
_cell_length_b       10.875
_cell_length_c       11.3614
_cell_angle_alpha    90
_cell_angle_beta     99.6467
_cell_angle_gamma    90

_space_group_name_H-M_alt    "P 1"
_space_group_IT_number       1

loop_
  _space_group_symop_operation_xyz
  'x, y, z'

loop_
  _atom_site_type_symbol
  _atom_site_label
  _atom_site_symmetry_multiplicity
  _atom_site_fract_x
  _atom_site_fract_y
  _atom_site_fract_z
  _atom_site_occupancy
  C   C1        1.0  0.33800  0.06040  0.22100  1.0000
  C   C2        1.0  0.83800  0.44000  0.22100  1.0000
  C   C3        1.0  0.06350  0.82200  0.23400  1.0000
  C   C4        1.0  0.56400  0.67800  0.23400  1.0000
  C   C5        1.0  0.34700  0.40900  0.24100  1.0000
  C   C6        1.0  0.84700  0.09100  0.24100  1.0000
  C   C7        1.0  0.15300  0.90900  0.75900  1.0000
  C   C8        1.0  0.65300  0.59100  0.75900  1.0000
  C   C9        1.0  0.93600  0.17800  0.76600  1.0000
  C   C10       1.0  0.43600  0.32200  0.76600  1.0000
  C   C11       1.0  0.16200  0.56000  0.77900  1.0000
  C   C12       1.0  0.66200  0.94000  0.77900  1.0000
  H   H1        1.0  0.31500  0.59000  0.41800  1.0000
  H   H2        1.0  0.81500  0.91000  0.41800  1.0000
  H   H3        1.0  0.11800  0.08990  0.44500  1.0000
  H   H4        1.0  0.61800  0.41000  0.44500  1.0000
  H   H5        1.0  0.38200  0.59000  0.55500  1.0000
  H   H6        1.0  0.88200  0.91000  0.55500  1.0000
  H   H7        1.0  0.18500  0.08970  0.58200  1.0000
  H   H8        1.0  0.68500  0.41000  0.58200  1.0000
  K   K1        1.0  0.39100  0.84800  0.50000  1.0000
  K   K2        1.0  0.89100  0.65200  0.50000  1.0000
  K   K3        1.0  0.10900  0.34800  0.50000  1.0000
  K   K4        1.0  0.60900  0.15200  0.50000  1.0000
  N   N1        1.0  0.43500  0.00723  0.29900  1.0000
  N   N2        1.0  0.93500  0.49300  0.29900  1.0000
  N   N3        1.0  0.52600  0.68000  0.33200  1.0000
  N   N4        1.0  0.02610  0.82000  0.33200  1.0000
  N   N5        1.0  0.40700  0.35900  0.33200  1.0000
  N   N6        1.0  0.90700  0.14100  0.33200  1.0000
  N   N7        1.0  0.09340  0.85900  0.66800  1.0000
  N   N8        1.0  0.59300  0.64100  0.66800  1.0000
  N   N9        1.0  0.47400  0.32000  0.66800  1.0000
  N   N10       1.0  0.97400  0.18000  0.66800  1.0000
  N   N11       1.0  0.56500  0.99300  0.70100  1.0000
  N   N12       1.0  0.06450  0.50700  0.70100  1.0000
  O   O1        1.0  0.76700  0.91600  0.49300  1.0000
  O   O2        1.0  0.26700  0.58400  0.49300  1.0000
  O   O3        1.0  0.23300  0.08430  0.50700  1.0000
  O   O4        1.0  0.73300  0.41600  0.50700  1.0000
  Pt  Pt1       1.0  0.00000  0.00000  0.00000  1.0000
  Pt  Pt2       1.0  0.50000  0.50000  0.00000  1.0000
  S   S1        1.0  0.12800  0.81600  0.10100  1.0000
  S   S2        1.0  0.62800  0.68400  0.10100  1.0000
  S   S3        1.0  0.21000  0.14400  0.11500  1.0000
  S   S4        1.0  0.71000  0.35600  0.11500  1.0000
  S   S5        1.0  0.24900  0.48100  0.11700  1.0000
  S   S6        1.0  0.74900  0.01950  0.11700  1.0000
  S   S7        1.0  0.25100  0.98100  0.88300  1.0000
  S   S8        1.0  0.75100  0.51900  0.88300  1.0000
  S   S9        1.0  0.29000  0.64400  0.88500  1.0000
  S   S10       1.0  0.79000  0.85600  0.88500  1.0000
  S   S11       1.0  0.37200  0.31600  0.89900  1.0000
  S   S12       1.0  0.87200  0.18400  0.89900  1.0000
