data_image0
_chemical_formula_structural       C20H4O20Os6
_chemical_formula_sum              "C20 H4 O20 Os6"
_cell_length_a       8.32249
_cell_length_b       8.86296
_cell_length_c       11.3877
_cell_angle_alpha    91.6707
_cell_angle_beta     98.7863
_cell_angle_gamma    117.294

_space_group_name_H-M_alt    "P 1"
_space_group_IT_number       1

loop_
  _space_group_symop_operation_xyz
  'x, y, z'

loop_
  _atom_site_type_symbol
  _atom_site_label
  _atom_site_symmetry_multiplicity
  _atom_site_fract_x
  _atom_site_fract_y
  _atom_site_fract_z
  _atom_site_occupancy
  C   C1        1.0  0.14500  0.24700  0.05860  1.0000
  C   C2        1.0  0.44900  0.63900  0.10400  1.0000
  C   C3        1.0  0.00644  0.45900  0.15200  1.0000
  C   C4        1.0  0.29200  0.02890  0.19200  1.0000
  C   C5        1.0  0.87600  0.10900  0.20200  1.0000
  C   C6        1.0  0.74500  0.67700  0.28500  1.0000
  C   C7        1.0  0.43900  0.72300  0.32400  1.0000
  C   C8        1.0  0.61100  0.22800  0.36100  1.0000
  C   C9        1.0  0.12800  0.38200  0.37800  1.0000
  C   C10       1.0  0.25400  0.10400  0.41300  1.0000
  C   C11       1.0  0.74600  0.89600  0.58700  1.0000
  C   C12       1.0  0.87200  0.61800  0.62200  1.0000
  C   C13       1.0  0.38900  0.77200  0.63900  1.0000
  C   C14       1.0  0.56100  0.27700  0.67600  1.0000
  C   C15       1.0  0.25500  0.32300  0.71500  1.0000
  C   C16       1.0  0.12400  0.89100  0.79800  1.0000
  C   C17       1.0  0.70800  0.97100  0.80800  1.0000
  C   C18       1.0  0.99400  0.54100  0.84800  1.0000
  C   C19       1.0  0.55100  0.36100  0.89600  1.0000
  C   C20       1.0  0.85500  0.75300  0.94100  1.0000
  H   H1        1.0  0.50300  0.37100  0.18900  1.0000
  H   H2        1.0  0.48400  0.44200  0.38500  1.0000
  H   H3        1.0  0.51600  0.55800  0.61500  1.0000
  H   H4        1.0  0.49700  0.62900  0.81100  1.0000
  O   O1        1.0  0.42600  0.68900  0.01280  1.0000
  O   O2        1.0  0.82800  0.79500  0.03110  1.0000
  O   O3        1.0  0.94800  0.55000  0.11800  1.0000
  O   O4        1.0  0.24000  0.91000  0.12200  1.0000
  O   O5        1.0  0.73200  0.99100  0.19700  1.0000
  O   O6        1.0  0.90400  0.75600  0.30400  1.0000
  O   O7        1.0  0.40900  0.82400  0.37100  1.0000
  O   O8        1.0  0.74500  0.22200  0.40200  1.0000
  O   O9        1.0  0.14700  0.42700  0.47800  1.0000
  O   O10       1.0  0.17700  0.03500  0.48800  1.0000
  O   O11       1.0  0.82300  0.96500  0.51200  1.0000
  O   O12       1.0  0.85300  0.57300  0.52200  1.0000
  O   O13       1.0  0.25500  0.77800  0.59800  1.0000
  O   O14       1.0  0.59100  0.17600  0.62900  1.0000
  O   O15       1.0  0.09580  0.24400  0.69600  1.0000
  O   O16       1.0  0.26800  0.00869  0.80300  1.0000
  O   O17       1.0  0.76000  0.08950  0.87800  1.0000
  O   O18       1.0  0.05210  0.45000  0.88200  1.0000
  O   O19       1.0  0.17200  0.20500  0.96900  1.0000
  O   O20       1.0  0.57400  0.31100  0.98700  1.0000
  Os  Os1       1.0  0.10200  0.31200  0.21000  1.0000
  Os  Os2       1.0  0.48100  0.55300  0.25100  1.0000
  Os  Os3       1.0  0.38800  0.23100  0.29800  1.0000
  Os  Os4       1.0  0.61200  0.76900  0.70200  1.0000
  Os  Os5       1.0  0.51900  0.44700  0.74900  1.0000
  Os  Os6       1.0  0.89800  0.68800  0.79000  1.0000
