data_image0
_chemical_formula_structural       C4H24Mg4O24
_chemical_formula_sum              "C4 H24 Mg4 O24"
_cell_length_a       7.31368
_cell_length_b       5.2729
_cell_length_c       11.892
_cell_angle_alpha    90
_cell_angle_beta     91.0472
_cell_angle_gamma    90

_space_group_name_H-M_alt    "P 1"
_space_group_IT_number       1

loop_
  _space_group_symop_operation_xyz
  'x, y, z'

loop_
  _atom_site_type_symbol
  _atom_site_label
  _atom_site_symmetry_multiplicity
  _atom_site_fract_x
  _atom_site_fract_y
  _atom_site_fract_z
  _atom_site_occupancy
  C   C1        1.0  0.26100  0.62800  0.08430  1.0000
  C   C2        1.0  0.23900  0.12800  0.41600  1.0000
  C   C3        1.0  0.76100  0.87200  0.58400  1.0000
  C   C4        1.0  0.73900  0.37200  0.91600  1.0000
  H   H1        1.0  0.72800  0.62800  0.08310  1.0000
  H   H2        1.0  0.89500  0.13900  0.08620  1.0000
  H   H3        1.0  0.59700  0.17400  0.09740  1.0000
  H   H4        1.0  0.59700  0.92500  0.16800  1.0000
  H   H5        1.0  0.83100  0.68000  0.20400  1.0000
  H   H6        1.0  0.91700  0.09730  0.22000  1.0000
  H   H7        1.0  0.58300  0.59700  0.28000  1.0000
  H   H8        1.0  0.66900  0.18000  0.29600  1.0000
  H   H9        1.0  0.90300  0.42500  0.33200  1.0000
  H   H10       1.0  0.90300  0.67400  0.40300  1.0000
  H   H11       1.0  0.60500  0.63900  0.41400  1.0000
  H   H12       1.0  0.77200  0.12800  0.41700  1.0000
  H   H13       1.0  0.22800  0.87200  0.58300  1.0000
  H   H14       1.0  0.39500  0.36100  0.58600  1.0000
  H   H15       1.0  0.09700  0.32600  0.59700  1.0000
  H   H16       1.0  0.09710  0.57500  0.66800  1.0000
  H   H17       1.0  0.33100  0.82000  0.70400  1.0000
  H   H18       1.0  0.41700  0.40300  0.72000  1.0000
  H   H19       1.0  0.08330  0.90300  0.78000  1.0000
  H   H20       1.0  0.16900  0.32000  0.79600  1.0000
  H   H21       1.0  0.40300  0.07540  0.83200  1.0000
  H   H22       1.0  0.40300  0.82600  0.90300  1.0000
  H   H23       1.0  0.10500  0.86100  0.91400  1.0000
  H   H24       1.0  0.27200  0.37200  0.91700  1.0000
  Mg  Mg1       1.0  0.25500  0.08240  0.14900  1.0000
  Mg  Mg2       1.0  0.24500  0.58200  0.35100  1.0000
  Mg  Mg3       1.0  0.75500  0.41800  0.64900  1.0000
  Mg  Mg4       1.0  0.74500  0.91800  0.85100  1.0000
  O   O1        1.0  0.26300  0.81800  0.01380  1.0000
  O   O2        1.0  0.26200  0.39800  0.05050  1.0000
  O   O3        1.0  0.98100  0.08620  0.14700  1.0000
  O   O4        1.0  0.53500  0.09630  0.16300  1.0000
  O   O5        1.0  0.71000  0.66100  0.16600  1.0000
  O   O6        1.0  0.25900  0.68900  0.18900  1.0000
  O   O7        1.0  0.24100  0.18900  0.31100  1.0000
  O   O8        1.0  0.79000  0.16100  0.33400  1.0000
  O   O9        1.0  0.96500  0.59600  0.33700  1.0000
  O   O10       1.0  0.51900  0.58600  0.35300  1.0000
  O   O11       1.0  0.23800  0.89800  0.45000  1.0000
  O   O12       1.0  0.23700  0.31800  0.48600  1.0000
  O   O13       1.0  0.76300  0.68200  0.51400  1.0000
  O   O14       1.0  0.76200  0.10200  0.55000  1.0000
  O   O15       1.0  0.48100  0.41400  0.64700  1.0000
  O   O16       1.0  0.03530  0.40400  0.66300  1.0000
  O   O17       1.0  0.21000  0.83900  0.66600  1.0000
  O   O18       1.0  0.75900  0.81100  0.68900  1.0000
  O   O19       1.0  0.74100  0.31100  0.81100  1.0000
  O   O20       1.0  0.29000  0.33900  0.83400  1.0000
  O   O21       1.0  0.46500  0.90400  0.83700  1.0000
  O   O22       1.0  0.01920  0.91400  0.85300  1.0000
  O   O23       1.0  0.73800  0.60200  0.95000  1.0000
  O   O24       1.0  0.73700  0.18200  0.98600  1.0000
