data_image0
_chemical_formula_structural       C12H16Ho2K2N12O8Ru2
_chemical_formula_sum              "C12 H16 Ho2 K2 N12 O8 Ru2"
_cell_length_a       7.25105
_cell_length_b       7.25105
_cell_length_c       14.1531
_cell_angle_alpha    90
_cell_angle_beta     90
_cell_angle_gamma    119.496

_space_group_name_H-M_alt    "P 1"
_space_group_IT_number       1

loop_
  _space_group_symop_operation_xyz
  'x, y, z'

loop_
  _atom_site_type_symbol
  _atom_site_label
  _atom_site_symmetry_multiplicity
  _atom_site_fract_x
  _atom_site_fract_y
  _atom_site_fract_z
  _atom_site_occupancy
  C   C1        1.0  0.35500  0.64500  0.06120  1.0000
  C   C2        1.0  0.35300  0.25600  0.08950  1.0000
  C   C3        1.0  0.74400  0.64700  0.08950  1.0000
  C   C4        1.0  0.35300  0.25600  0.41100  1.0000
  C   C5        1.0  0.74400  0.64700  0.41100  1.0000
  C   C6        1.0  0.35500  0.64500  0.43900  1.0000
  C   C7        1.0  0.64500  0.35500  0.56100  1.0000
  C   C8        1.0  0.25600  0.35300  0.58900  1.0000
  C   C9        1.0  0.64700  0.74400  0.58900  1.0000
  C   C10       1.0  0.25600  0.35300  0.91100  1.0000
  C   C11       1.0  0.64700  0.74400  0.91100  1.0000
  C   C12       1.0  0.64500  0.35500  0.93900  1.0000
  H   H1        1.0  0.78900  0.21100  0.04530  1.0000
  H   H2        1.0  0.90200  0.09790  0.09290  1.0000
  H   H3        1.0  0.63000  0.03570  0.19300  1.0000
  H   H4        1.0  0.96400  0.37000  0.19300  1.0000
  H   H5        1.0  0.63000  0.03570  0.30700  1.0000
  H   H6        1.0  0.96400  0.37000  0.30700  1.0000
  H   H7        1.0  0.90200  0.09790  0.40700  1.0000
  H   H8        1.0  0.78900  0.21100  0.45500  1.0000
  H   H9        1.0  0.21100  0.78900  0.54500  1.0000
  H   H10       1.0  0.09790  0.90200  0.59300  1.0000
  H   H11       1.0  0.03570  0.63000  0.69300  1.0000
  H   H12       1.0  0.37000  0.96400  0.69300  1.0000
  H   H13       1.0  0.03570  0.63000  0.80700  1.0000
  H   H14       1.0  0.37000  0.96400  0.80700  1.0000
  H   H15       1.0  0.09790  0.90200  0.90700  1.0000
  H   H16       1.0  0.21100  0.78900  0.95500  1.0000
  Ho  Ho1       1.0  0.16900  0.83100  0.25000  1.0000
  Ho  Ho2       1.0  0.83100  0.16900  0.75000  1.0000
  K   K1        1.0  0.46300  0.53700  0.25000  1.0000
  K   K2        1.0  0.53700  0.46300  0.75000  1.0000
  N   N1        1.0  0.27400  0.72600  0.10300  1.0000
  N   N2        1.0  0.27000  0.12200  0.14700  1.0000
  N   N3        1.0  0.87800  0.73000  0.14700  1.0000
  N   N4        1.0  0.27000  0.12200  0.35300  1.0000
  N   N5        1.0  0.87800  0.73000  0.35300  1.0000
  N   N6        1.0  0.27400  0.72600  0.39700  1.0000
  N   N7        1.0  0.72600  0.27400  0.60300  1.0000
  N   N8        1.0  0.12200  0.27000  0.64700  1.0000
  N   N9        1.0  0.73000  0.87800  0.64700  1.0000
  N   N10       1.0  0.12200  0.27000  0.85300  1.0000
  N   N11       1.0  0.73000  0.87800  0.85300  1.0000
  N   N12       1.0  0.72600  0.27400  0.89700  1.0000
  O   O1        1.0  0.82600  0.17400  0.10700  1.0000
  O   O2        1.0  0.03540  0.45700  0.25000  1.0000
  O   O3        1.0  0.54300  0.96500  0.25000  1.0000
  O   O4        1.0  0.82600  0.17400  0.39300  1.0000
  O   O5        1.0  0.17400  0.82600  0.60700  1.0000
  O   O6        1.0  0.45700  0.03540  0.75000  1.0000
  O   O7        1.0  0.96500  0.54300  0.75000  1.0000
  O   O8        1.0  0.17400  0.82600  0.89300  1.0000
  Ru  Ru1       1.0  0.50000  0.50000  0.00000  1.0000
  Ru  Ru2       1.0  0.50000  0.50000  0.50000  1.0000
