data_image0
_chemical_formula_structural       C12H20N20O4
_chemical_formula_sum              "C12 H20 N20 O4"
_cell_length_a       4.61138
_cell_length_b       9.54476
_cell_length_c       10.977
_cell_angle_alpha    90
_cell_angle_beta     96.1451
_cell_angle_gamma    90

_space_group_name_H-M_alt    "P 1"
_space_group_IT_number       1

loop_
  _space_group_symop_operation_xyz
  'x, y, z'

loop_
  _atom_site_type_symbol
  _atom_site_label
  _atom_site_symmetry_multiplicity
  _atom_site_fract_x
  _atom_site_fract_y
  _atom_site_fract_z
  _atom_site_occupancy
  C   C1        1.0  0.37700  0.23800  0.11400  1.0000
  C   C2        1.0  0.32200  0.73400  0.12300  1.0000
  C   C3        1.0  0.38800  0.49400  0.12900  1.0000
  C   C4        1.0  0.11200  0.99400  0.37100  1.0000
  C   C5        1.0  0.17800  0.23400  0.37700  1.0000
  C   C6        1.0  0.12300  0.73800  0.38600  1.0000
  C   C7        1.0  0.87700  0.26200  0.61400  1.0000
  C   C8        1.0  0.82200  0.76600  0.62300  1.0000
  C   C9        1.0  0.88800  0.00564  0.62900  1.0000
  C   C10       1.0  0.61200  0.50600  0.87100  1.0000
  C   C11       1.0  0.67800  0.26600  0.87700  1.0000
  C   C12       1.0  0.62300  0.76200  0.88600  1.0000
  H   H1        1.0  0.07120  0.38100  0.02980  1.0000
  H   H2        1.0  0.97200  0.15100  0.07640  1.0000
  H   H3        1.0  0.26500  0.03160  0.10600  1.0000
  H   H4        1.0  0.74000  0.40400  0.22300  1.0000
  H   H5        1.0  0.72200  0.58800  0.24100  1.0000
  H   H6        1.0  0.77800  0.08780  0.25900  1.0000
  H   H7        1.0  0.76000  0.90400  0.27700  1.0000
  H   H8        1.0  0.23500  0.53200  0.39400  1.0000
  H   H9        1.0  0.52800  0.65100  0.42400  1.0000
  H   H10       1.0  0.42900  0.88100  0.47000  1.0000
  H   H11       1.0  0.57100  0.11900  0.53000  1.0000
  H   H12       1.0  0.47200  0.34900  0.57600  1.0000
  H   H13       1.0  0.76500  0.46800  0.60600  1.0000
  H   H14       1.0  0.24000  0.09600  0.72300  1.0000
  H   H15       1.0  0.22200  0.91200  0.74100  1.0000
  H   H16       1.0  0.27800  0.41200  0.75900  1.0000
  H   H17       1.0  0.26000  0.59600  0.77700  1.0000
  H   H18       1.0  0.73500  0.96800  0.89400  1.0000
  H   H19       1.0  0.02830  0.84900  0.92400  1.0000
  H   H20       1.0  0.92900  0.61900  0.97000  1.0000
  N   N1        1.0  0.26500  0.37100  0.08720  1.0000
  N   N2        1.0  0.19100  0.13300  0.08730  1.0000
  N   N3        1.0  0.23100  0.60800  0.09290  1.0000
  N   N4        1.0  0.38000  0.85300  0.14200  1.0000
  N   N5        1.0  0.63900  0.49700  0.19900  1.0000
  N   N6        1.0  0.86100  0.99700  0.30100  1.0000
  N   N7        1.0  0.12000  0.35300  0.35800  1.0000
  N   N8        1.0  0.26900  0.10800  0.40700  1.0000
  N   N9        1.0  0.30900  0.63300  0.41300  1.0000
  N   N10       1.0  0.23500  0.87100  0.41300  1.0000
  N   N11       1.0  0.76500  0.12900  0.58700  1.0000
  N   N12       1.0  0.69100  0.36700  0.58700  1.0000
  N   N13       1.0  0.73100  0.89200  0.59300  1.0000
  N   N14       1.0  0.88000  0.64700  0.64200  1.0000
  N   N15       1.0  0.13900  0.00301  0.69900  1.0000
  N   N16       1.0  0.36100  0.50300  0.80100  1.0000
  N   N17       1.0  0.62000  0.14700  0.85800  1.0000
  N   N18       1.0  0.76900  0.39200  0.90700  1.0000
  N   N19       1.0  0.80900  0.86700  0.91300  1.0000
  N   N20       1.0  0.73500  0.62900  0.91300  1.0000
  O   O1        1.0  0.63800  0.22100  0.15900  1.0000
  O   O2        1.0  0.86200  0.72100  0.34100  1.0000
  O   O3        1.0  0.13800  0.27900  0.65900  1.0000
  O   O4        1.0  0.36200  0.77900  0.84100  1.0000
