data_image0
_chemical_formula_structural       C12H36I4Pb4
_chemical_formula_sum              "C12 H36 I4 Pb4"
_cell_length_a       6.53704
_cell_length_b       10.3118
_cell_length_c       11.304
_cell_angle_alpha    90
_cell_angle_beta     90
_cell_angle_gamma    90

_space_group_name_H-M_alt    "P 1"
_space_group_IT_number       1

loop_
  _space_group_symop_operation_xyz
  'x, y, z'

loop_
  _atom_site_type_symbol
  _atom_site_label
  _atom_site_symmetry_multiplicity
  _atom_site_fract_x
  _atom_site_fract_y
  _atom_site_fract_z
  _atom_site_occupancy
  C   C1        1.0  0.18600  0.23200  0.09010  1.0000
  C   C2        1.0  0.82600  0.55800  0.11200  1.0000
  C   C3        1.0  0.30900  0.74500  0.21500  1.0000
  C   C4        1.0  0.69100  0.24500  0.28500  1.0000
  C   C5        1.0  0.17400  0.05790  0.38800  1.0000
  C   C6        1.0  0.81400  0.73200  0.41000  1.0000
  C   C7        1.0  0.31400  0.76800  0.59000  1.0000
  C   C8        1.0  0.67400  0.44200  0.61200  1.0000
  C   C9        1.0  0.19100  0.25500  0.71500  1.0000
  C   C10       1.0  0.80900  0.75500  0.78500  1.0000
  C   C11       1.0  0.32600  0.94200  0.88800  1.0000
  C   C12       1.0  0.68600  0.26800  0.91000  1.0000
  H   H1        1.0  0.07630  0.21900  0.01780  1.0000
  H   H2        1.0  0.94400  0.52100  0.05130  1.0000
  H   H3        1.0  0.71000  0.61400  0.06460  1.0000
  H   H4        1.0  0.30900  0.16000  0.08400  1.0000
  H   H5        1.0  0.24500  0.33100  0.09380  1.0000
  H   H6        1.0  0.31700  0.82800  0.15400  1.0000
  H   H7        1.0  0.75600  0.48000  0.16300  1.0000
  H   H8        1.0  0.38500  0.66000  0.17700  1.0000
  H   H9        1.0  0.62700  0.27000  0.19900  1.0000
  H   H10       1.0  0.37300  0.77000  0.30100  1.0000
  H   H11       1.0  0.61500  0.16000  0.32300  1.0000
  H   H12       1.0  0.24400  0.98000  0.33700  1.0000
  H   H13       1.0  0.68300  0.32800  0.34600  1.0000
  H   H14       1.0  0.75500  0.83100  0.40600  1.0000
  H   H15       1.0  0.69100  0.66000  0.41600  1.0000
  H   H16       1.0  0.29000  0.11400  0.43500  1.0000
  H   H17       1.0  0.05620  0.02130  0.44900  1.0000
  H   H18       1.0  0.92400  0.71900  0.48200  1.0000
  H   H19       1.0  0.42400  0.78100  0.51800  1.0000
  H   H20       1.0  0.55600  0.47900  0.55100  1.0000
  H   H21       1.0  0.79000  0.38600  0.56500  1.0000
  H   H22       1.0  0.19100  0.84000  0.58400  1.0000
  H   H23       1.0  0.25500  0.66900  0.59400  1.0000
  H   H24       1.0  0.18300  0.17200  0.65400  1.0000
  H   H25       1.0  0.74400  0.52000  0.66300  1.0000
  H   H26       1.0  0.11500  0.34000  0.67700  1.0000
  H   H27       1.0  0.87300  0.73000  0.69900  1.0000
  H   H28       1.0  0.12700  0.23000  0.80100  1.0000
  H   H29       1.0  0.88500  0.84000  0.82300  1.0000
  H   H30       1.0  0.25600  0.02040  0.83700  1.0000
  H   H31       1.0  0.81700  0.67200  0.84600  1.0000
  H   H32       1.0  0.74500  0.16900  0.90600  1.0000
  H   H33       1.0  0.80900  0.34000  0.91600  1.0000
  H   H34       1.0  0.21000  0.88600  0.93500  1.0000
  H   H35       1.0  0.44400  0.97900  0.94900  1.0000
  H   H36       1.0  0.57600  0.28100  0.98200  1.0000
  I   I1        1.0  0.82200  0.94100  0.11900  1.0000
  I   I2        1.0  0.17800  0.44100  0.38100  1.0000
  I   I3        1.0  0.67800  0.05900  0.61900  1.0000
  I   I4        1.0  0.32200  0.55900  0.88100  1.0000
  Pb  Pb1       1.0  0.98100  0.69100  0.24000  1.0000
  Pb  Pb2       1.0  0.01910  0.19100  0.26000  1.0000
  Pb  Pb3       1.0  0.51900  0.30900  0.74000  1.0000
  Pb  Pb4       1.0  0.48100  0.80900  0.76000  1.0000
