data_image0
_chemical_formula_structural       C8H10K4Na2O28Zn4
_chemical_formula_sum              "C8 H10 K4 Na2 O28 Zn4"
_cell_length_a       10.4815
_cell_length_b       10.7689
_cell_length_c       5.13887
_cell_angle_alpha    90
_cell_angle_beta     93.0921
_cell_angle_gamma    90

_space_group_name_H-M_alt    "P 1"
_space_group_IT_number       1

loop_
  _space_group_symop_operation_xyz
  'x, y, z'

loop_
  _atom_site_type_symbol
  _atom_site_label
  _atom_site_symmetry_multiplicity
  _atom_site_fract_x
  _atom_site_fract_y
  _atom_site_fract_z
  _atom_site_occupancy
  C   C1        1.0  0.43100  0.13000  0.00869  1.0000
  C   C2        1.0  0.32000  0.42400  0.03360  1.0000
  C   C3        1.0  0.18000  0.92400  0.46600  1.0000
  C   C4        1.0  0.06860  0.63000  0.49100  1.0000
  C   C5        1.0  0.93100  0.37000  0.50900  1.0000
  C   C6        1.0  0.82000  0.07610  0.53400  1.0000
  C   C7        1.0  0.68000  0.57600  0.96600  1.0000
  C   C8        1.0  0.56900  0.87000  0.99100  1.0000
  H   H1        1.0  0.50000  0.50000  0.00000  1.0000
  H   H2        1.0  0.18000  0.69300  0.12800  1.0000
  H   H3        1.0  0.77000  0.34100  0.15100  1.0000
  H   H4        1.0  0.73000  0.84100  0.34900  1.0000
  H   H5        1.0  0.32000  0.19300  0.37200  1.0000
  H   H6        1.0  0.00000  0.00000  0.50000  1.0000
  H   H7        1.0  0.68000  0.80700  0.62800  1.0000
  H   H8        1.0  0.27000  0.15900  0.65100  1.0000
  H   H9        1.0  0.23000  0.65900  0.84900  1.0000
  H   H10       1.0  0.82000  0.30700  0.87200  1.0000
  K   K1        1.0  0.07510  0.16300  0.03900  1.0000
  K   K2        1.0  0.42500  0.66300  0.46100  1.0000
  K   K3        1.0  0.57500  0.33700  0.53900  1.0000
  K   K4        1.0  0.92500  0.83700  0.96100  1.0000
  Na  Na1       1.0  0.00000  0.50000  0.00000  1.0000
  Na  Na2       1.0  0.50000  0.00000  0.50000  1.0000
  O   O1        1.0  0.25700  0.70400  0.01560  1.0000
  O   O2        1.0  0.78800  0.61500  0.07000  1.0000
  O   O3        1.0  0.68000  0.90600  0.08400  1.0000
  O   O4        1.0  0.58900  0.54800  0.12100  1.0000
  O   O5        1.0  0.47200  0.87800  0.13900  1.0000
  O   O6        1.0  0.16000  0.93600  0.21900  1.0000
  O   O7        1.0  0.44700  0.17300  0.24100  1.0000
  O   O8        1.0  0.05320  0.67300  0.25900  1.0000
  O   O9        1.0  0.34000  0.43600  0.28100  1.0000
  O   O10       1.0  0.02850  0.37800  0.36100  1.0000
  O   O11       1.0  0.91100  0.04820  0.37900  1.0000
  O   O12       1.0  0.82000  0.40600  0.41600  1.0000
  O   O13       1.0  0.71200  0.11500  0.43000  1.0000
  O   O14       1.0  0.24300  0.20400  0.48400  1.0000
  O   O15       1.0  0.75700  0.79600  0.51600  1.0000
  O   O16       1.0  0.28800  0.88500  0.57000  1.0000
  O   O17       1.0  0.18000  0.59400  0.58400  1.0000
  O   O18       1.0  0.08910  0.95200  0.62100  1.0000
  O   O19       1.0  0.97200  0.62200  0.63900  1.0000
  O   O20       1.0  0.66000  0.56400  0.71900  1.0000
  O   O21       1.0  0.94700  0.32700  0.74100  1.0000
  O   O22       1.0  0.55300  0.82700  0.75900  1.0000
  O   O23       1.0  0.84000  0.06410  0.78100  1.0000
  O   O24       1.0  0.52800  0.12200  0.86100  1.0000
  O   O25       1.0  0.41100  0.45200  0.87900  1.0000
  O   O26       1.0  0.32000  0.09360  0.91600  1.0000
  O   O27       1.0  0.21200  0.38500  0.93000  1.0000
  O   O28       1.0  0.74300  0.29600  0.98400  1.0000
  Zn  Zn1       1.0  0.70600  0.10900  0.03380  1.0000
  Zn  Zn2       1.0  0.79400  0.60900  0.46600  1.0000
  Zn  Zn3       1.0  0.20600  0.39100  0.53400  1.0000
  Zn  Zn4       1.0  0.29400  0.89100  0.96600  1.0000
