data_image0
_chemical_formula_structural       C8H16N8Ni4S16
_chemical_formula_sum              "C8 H16 N8 Ni4 S16"
_cell_length_a       7.06813
_cell_length_b       12.8549
_cell_length_c       11.0369
_cell_angle_alpha    90
_cell_angle_beta     130.217
_cell_angle_gamma    90

_space_group_name_H-M_alt    "P 1"
_space_group_IT_number       1

loop_
  _space_group_symop_operation_xyz
  'x, y, z'

loop_
  _atom_site_type_symbol
  _atom_site_label
  _atom_site_symmetry_multiplicity
  _atom_site_fract_x
  _atom_site_fract_y
  _atom_site_fract_z
  _atom_site_occupancy
  C   C1        1.0  0.89600  0.52500  0.20200  1.0000
  C   C2        1.0  0.34900  0.76100  0.24400  1.0000
  C   C3        1.0  0.65100  0.26100  0.25600  1.0000
  C   C4        1.0  0.10400  0.02520  0.29800  1.0000
  C   C5        1.0  0.89600  0.97500  0.70200  1.0000
  C   C6        1.0  0.34900  0.73900  0.74400  1.0000
  C   C7        1.0  0.65100  0.23900  0.75600  1.0000
  C   C8        1.0  0.10400  0.47500  0.79800  1.0000
  H   H1        1.0  0.37900  0.23400  0.01820  1.0000
  H   H2        1.0  0.35800  0.49100  0.03970  1.0000
  H   H3        1.0  0.86900  0.41200  0.05850  1.0000
  H   H4        1.0  0.62900  0.14500  0.11800  1.0000
  H   H5        1.0  0.37100  0.64500  0.38200  1.0000
  H   H6        1.0  0.13100  0.91200  0.44200  1.0000
  H   H7        1.0  0.64200  0.99100  0.46000  1.0000
  H   H8        1.0  0.62100  0.73400  0.48200  1.0000
  H   H9        1.0  0.37900  0.26600  0.51800  1.0000
  H   H10       1.0  0.35800  0.00863  0.54000  1.0000
  H   H11       1.0  0.86900  0.08800  0.55800  1.0000
  H   H12       1.0  0.62900  0.35500  0.61800  1.0000
  H   H13       1.0  0.37100  0.85500  0.88200  1.0000
  H   H14       1.0  0.13100  0.58800  0.94200  1.0000
  H   H15       1.0  0.64200  0.50900  0.96000  1.0000
  H   H16       1.0  0.62100  0.76600  0.98200  1.0000
  N   N1        1.0  0.79200  0.47700  0.06550  1.0000
  N   N2        1.0  0.54400  0.20900  0.12200  1.0000
  N   N3        1.0  0.45600  0.70900  0.37800  1.0000
  N   N4        1.0  0.20800  0.97700  0.43400  1.0000
  N   N5        1.0  0.79200  0.02290  0.56600  1.0000
  N   N6        1.0  0.54400  0.29100  0.62200  1.0000
  N   N7        1.0  0.45600  0.79100  0.87800  1.0000
  N   N8        1.0  0.20800  0.52300  0.93400  1.0000
  Ni  Ni1       1.0  0.88400  0.12800  0.02450  1.0000
  Ni  Ni2       1.0  0.11600  0.62800  0.47500  1.0000
  Ni  Ni3       1.0  0.88400  0.37200  0.52500  1.0000
  Ni  Ni4       1.0  0.11600  0.87200  0.97500  1.0000
  S   S1        1.0  0.07110  0.72900  0.06300  1.0000
  S   S2        1.0  0.83200  0.99000  0.11700  1.0000
  S   S3        1.0  0.46300  0.87100  0.22400  1.0000
  S   S4        1.0  0.78000  0.63300  0.22400  1.0000
  S   S5        1.0  0.22000  0.13300  0.27600  1.0000
  S   S6        1.0  0.53700  0.37100  0.27600  1.0000
  S   S7        1.0  0.16800  0.49000  0.38300  1.0000
  S   S8        1.0  0.92900  0.22900  0.43700  1.0000
  S   S9        1.0  0.07110  0.77100  0.56300  1.0000
  S   S10       1.0  0.83200  0.51000  0.61700  1.0000
  S   S11       1.0  0.46300  0.62900  0.72400  1.0000
  S   S12       1.0  0.78000  0.86700  0.72400  1.0000
  S   S13       1.0  0.22000  0.36700  0.77600  1.0000
  S   S14       1.0  0.53700  0.12900  0.77600  1.0000
  S   S15       1.0  0.16800  0.01030  0.88300  1.0000
  S   S16       1.0  0.92900  0.27100  0.93700  1.0000
