data_image0
_chemical_formula_structural       Ca2Ga4O8
_chemical_formula_sum              "Ca2 Ga4 O8"
_cell_length_a       6.16559
_cell_length_b       6.16559
_cell_length_c       6.16559
_cell_angle_alpha    119.995
_cell_angle_beta     90.0086
_cell_angle_gamma    119.995

_space_group_name_H-M_alt    "P 1"
_space_group_IT_number       1

loop_
  _space_group_symop_operation_xyz
  'x, y, z'

loop_
  _atom_site_type_symbol
  _atom_site_label
  _atom_site_symmetry_multiplicity
  _atom_site_fract_x
  _atom_site_fract_y
  _atom_site_fract_z
  _atom_site_occupancy
  Ca  Ca1       1.0  0.00000  0.00000  0.00000  1.0000
  Ca  Ca2       1.0  0.75000  0.50000  0.25000  1.0000
  Ga  Ga1       1.0  0.37500  0.75000  0.12500  1.0000
  Ga  Ga2       1.0  0.87500  0.25000  0.62500  1.0000
  Ga  Ga3       1.0  0.37500  0.75000  0.62500  1.0000
  Ga  Ga4       1.0  0.37500  0.25000  0.62500  1.0000
  O   O1        1.0  0.60700  0.21400  0.39300  1.0000
  O   O2        1.0  0.17800  0.78600  0.39300  1.0000
  O   O3        1.0  0.60700  0.78600  0.39300  1.0000
  O   O4        1.0  0.14300  0.28600  0.42800  1.0000
  O   O5        1.0  0.60700  0.21400  0.82200  1.0000
  O   O6        1.0  0.14300  0.71400  0.85700  1.0000
  O   O7        1.0  0.57200  0.71400  0.85700  1.0000
  O   O8        1.0  0.14300  0.28600  0.85700  1.0000
