data_image0
_chemical_formula_structural       ErFeSm2
_chemical_formula_sum              "Er1 Fe1 Sm2"
_cell_length_a       5.173
_cell_length_b       5.173
_cell_length_c       5.173
_cell_angle_alpha    59.9921
_cell_angle_beta     59.9921
_cell_angle_gamma    59.9921

_space_group_name_H-M_alt    "P 1"
_space_group_IT_number       1

loop_
  _space_group_symop_operation_xyz
  'x, y, z'

loop_
  _atom_site_type_symbol
  _atom_site_label
  _atom_site_symmetry_multiplicity
  _atom_site_fract_x
  _atom_site_fract_y
  _atom_site_fract_z
  _atom_site_occupancy
  Er  Er1       1.0  0.25000  0.25000  0.25000  1.0000
  Fe  Fe1       1.0  0.75000  0.75000  0.75000  1.0000
  Sm  Sm1       1.0  0.00002  0.00002  0.00002  1.0000
  Sm  Sm2       1.0  0.50000  0.50000  0.50000  1.0000
