data_image0
_chemical_formula_structural       Br12C8H32N4Sn2
_chemical_formula_sum              "Br12 C8 H32 N4 Sn2"
_cell_length_a       14.8623
_cell_length_b       7.58431
_cell_length_c       7.50638
_cell_angle_alpha    90
_cell_angle_beta     90
_cell_angle_gamma    90

_space_group_name_H-M_alt    "P 1"
_space_group_IT_number       1

loop_
  _space_group_symop_operation_xyz
  'x, y, z'

loop_
  _atom_site_type_symbol
  _atom_site_label
  _atom_site_symmetry_multiplicity
  _atom_site_fract_x
  _atom_site_fract_y
  _atom_site_fract_z
  _atom_site_occupancy
  Br  Br1       1.0  0.15000  0.18600  0.00000  1.0000
  Br  Br2       1.0  0.85000  0.81400  0.00000  1.0000
  Br  Br3       1.0  0.43300  0.29400  0.24800  1.0000
  Br  Br4       1.0  0.56700  0.70600  0.24800  1.0000
  Br  Br5       1.0  0.93300  0.20600  0.25200  1.0000
  Br  Br6       1.0  0.06680  0.79400  0.25200  1.0000
  Br  Br7       1.0  0.65000  0.31400  0.50000  1.0000
  Br  Br8       1.0  0.35000  0.68600  0.50000  1.0000
  Br  Br9       1.0  0.93300  0.20600  0.74800  1.0000
  Br  Br10      1.0  0.06680  0.79400  0.74800  1.0000
  Br  Br11      1.0  0.43300  0.29400  0.75200  1.0000
  Br  Br12      1.0  0.56700  0.70600  0.75200  1.0000
  C   C1        1.0  0.63700  0.12300  0.00000  1.0000
  C   C2        1.0  0.72700  0.39900  0.00000  1.0000
  C   C3        1.0  0.27300  0.60100  0.00000  1.0000
  C   C4        1.0  0.36300  0.87700  0.00000  1.0000
  C   C5        1.0  0.22700  0.10100  0.50000  1.0000
  C   C6        1.0  0.13700  0.37700  0.50000  1.0000
  C   C7        1.0  0.86300  0.62300  0.50000  1.0000
  C   C8        1.0  0.77300  0.89900  0.50000  1.0000
  H   H1        1.0  0.56700  0.07470  0.00000  1.0000
  H   H2        1.0  0.28000  0.45800  0.00000  1.0000
  H   H3        1.0  0.72000  0.54200  0.00000  1.0000
  H   H4        1.0  0.43300  0.92500  0.00000  1.0000
  H   H5        1.0  0.59900  0.36300  0.11000  1.0000
  H   H6        1.0  0.40100  0.63700  0.11000  1.0000
  H   H7        1.0  0.76300  0.35400  0.11900  1.0000
  H   H8        1.0  0.23700  0.64600  0.11900  1.0000
  H   H9        1.0  0.67200  0.07740  0.12000  1.0000
  H   H10       1.0  0.32800  0.92300  0.12000  1.0000
  H   H11       1.0  0.17200  0.42300  0.38000  1.0000
  H   H12       1.0  0.82800  0.57700  0.38000  1.0000
  H   H13       1.0  0.26300  0.14600  0.38100  1.0000
  H   H14       1.0  0.73700  0.85400  0.38100  1.0000
  H   H15       1.0  0.09930  0.13700  0.39000  1.0000
  H   H16       1.0  0.90100  0.86300  0.39000  1.0000
  H   H17       1.0  0.78000  0.04230  0.50000  1.0000
  H   H18       1.0  0.06720  0.42500  0.50000  1.0000
  H   H19       1.0  0.93300  0.57500  0.50000  1.0000
  H   H20       1.0  0.22000  0.95800  0.50000  1.0000
  H   H21       1.0  0.09930  0.13700  0.61000  1.0000
  H   H22       1.0  0.90100  0.86300  0.61000  1.0000
  H   H23       1.0  0.26300  0.14600  0.61900  1.0000
  H   H24       1.0  0.73700  0.85400  0.61900  1.0000
  H   H25       1.0  0.17200  0.42300  0.62000  1.0000
  H   H26       1.0  0.82800  0.57700  0.62000  1.0000
  H   H27       1.0  0.67200  0.07740  0.88000  1.0000
  H   H28       1.0  0.32800  0.92300  0.88000  1.0000
  H   H29       1.0  0.76300  0.35400  0.88100  1.0000
  H   H30       1.0  0.23700  0.64600  0.88100  1.0000
  H   H31       1.0  0.59900  0.36300  0.89000  1.0000
  H   H32       1.0  0.40100  0.63700  0.89000  1.0000
  N   N1        1.0  0.63500  0.31900  0.00000  1.0000
  N   N2        1.0  0.36500  0.68100  0.00000  1.0000
  N   N3        1.0  0.13500  0.18100  0.50000  1.0000
  N   N4        1.0  0.86500  0.81900  0.50000  1.0000
  Sn  Sn1       1.0  0.00000  0.00000  0.00000  1.0000
  Sn  Sn2       1.0  0.50000  0.50000  0.50000  1.0000
