data_image0
_chemical_formula_structural       Ba12Mn4Na4O34Ru4
_chemical_formula_sum              "Ba12 Mn4 Na4 O34 Ru4"
_cell_length_a       5.81976
_cell_length_b       5.81976
_cell_length_c       29.6831
_cell_angle_alpha    90
_cell_angle_beta     90
_cell_angle_gamma    120

_space_group_name_H-M_alt    "P 1"
_space_group_IT_number       1

loop_
  _space_group_symop_operation_xyz
  'x, y, z'

loop_
  _atom_site_type_symbol
  _atom_site_label
  _atom_site_symmetry_multiplicity
  _atom_site_fract_x
  _atom_site_fract_y
  _atom_site_fract_z
  _atom_site_occupancy
  Ba  Ba1       1.0  0.00000  0.00000  0.00000  1.0000
  Ba  Ba2       1.0  0.66700  0.33300  0.09230  1.0000
  Ba  Ba3       1.0  0.33300  0.66700  0.17800  1.0000
  Ba  Ba4       1.0  0.00000  0.00000  0.25000  1.0000
  Ba  Ba5       1.0  0.33300  0.66700  0.32200  1.0000
  Ba  Ba6       1.0  0.66700  0.33300  0.40800  1.0000
  Ba  Ba7       1.0  0.00000  0.00000  0.50000  1.0000
  Ba  Ba8       1.0  0.33300  0.66700  0.59200  1.0000
  Ba  Ba9       1.0  0.66700  0.33300  0.67800  1.0000
  Ba  Ba10      1.0  0.00000  0.00000  0.75000  1.0000
  Ba  Ba11      1.0  0.66700  0.33300  0.82200  1.0000
  Ba  Ba12      1.0  0.33300  0.66700  0.90800  1.0000
  Mn  Mn1       1.0  0.33300  0.66700  0.05220  1.0000
  Mn  Mn2       1.0  0.33300  0.66700  0.44800  1.0000
  Mn  Mn3       1.0  0.66700  0.33300  0.55200  1.0000
  Mn  Mn4       1.0  0.66700  0.33300  0.94800  1.0000
  Na  Na1       1.0  0.00000  0.00000  0.12400  1.0000
  Na  Na2       1.0  0.00000  0.00000  0.37600  1.0000
  Na  Na3       1.0  0.00000  0.00000  0.62400  1.0000
  Na  Na4       1.0  0.00000  0.00000  0.87600  1.0000
  O   O1        1.0  0.66700  0.33300  0.00469  1.0000
  O   O2        1.0  0.17500  0.82500  0.07360  1.0000
  O   O3        1.0  0.65000  0.82500  0.07360  1.0000
  O   O4        1.0  0.17500  0.35000  0.07360  1.0000
  O   O5        1.0  0.34900  0.17500  0.16900  1.0000
  O   O6        1.0  0.82500  0.17500  0.16900  1.0000
  O   O7        1.0  0.82500  0.65100  0.16900  1.0000
  O   O8        1.0  0.51200  0.02320  0.25000  1.0000
  O   O9        1.0  0.51200  0.48800  0.25000  1.0000
  O   O10       1.0  0.97700  0.48800  0.25000  1.0000
  O   O11       1.0  0.82500  0.65100  0.33100  1.0000
  O   O12       1.0  0.34900  0.17500  0.33100  1.0000
  O   O13       1.0  0.82500  0.17500  0.33100  1.0000
  O   O14       1.0  0.17500  0.35000  0.42600  1.0000
  O   O15       1.0  0.17500  0.82500  0.42600  1.0000
  O   O16       1.0  0.65000  0.82500  0.42600  1.0000
  O   O17       1.0  0.66700  0.33300  0.49500  1.0000
  O   O18       1.0  0.33300  0.66700  0.50500  1.0000
  O   O19       1.0  0.35000  0.17500  0.57400  1.0000
  O   O20       1.0  0.82500  0.17500  0.57400  1.0000
  O   O21       1.0  0.82500  0.65000  0.57400  1.0000
  O   O22       1.0  0.17500  0.82500  0.66900  1.0000
  O   O23       1.0  0.65100  0.82500  0.66900  1.0000
  O   O24       1.0  0.17500  0.34900  0.66900  1.0000
  O   O25       1.0  0.02320  0.51200  0.75000  1.0000
  O   O26       1.0  0.48800  0.51200  0.75000  1.0000
  O   O27       1.0  0.48800  0.97700  0.75000  1.0000
  O   O28       1.0  0.17500  0.34900  0.83100  1.0000
  O   O29       1.0  0.17500  0.82500  0.83100  1.0000
  O   O30       1.0  0.65100  0.82500  0.83100  1.0000
  O   O31       1.0  0.82500  0.65000  0.92600  1.0000
  O   O32       1.0  0.35000  0.17500  0.92600  1.0000
  O   O33       1.0  0.82500  0.17500  0.92600  1.0000
  O   O34       1.0  0.33300  0.66700  0.99500  1.0000
  Ru  Ru1       1.0  0.66700  0.33300  0.20400  1.0000
  Ru  Ru2       1.0  0.66700  0.33300  0.29600  1.0000
  Ru  Ru3       1.0  0.33300  0.66700  0.70400  1.0000
  Ru  Ru4       1.0  0.33300  0.66700  0.79600  1.0000
