data_image0
_chemical_formula_structural       C8H24N4O16Se2U2
_chemical_formula_sum              "C8 H24 N4 O16 Se2 U2"
_cell_length_a       7.08028
_cell_length_b       7.74298
_cell_length_c       11.1629
_cell_angle_alpha    94.7556
_cell_angle_beta     108.49
_cell_angle_gamma    90

_space_group_name_H-M_alt    "P 1"
_space_group_IT_number       1

loop_
  _space_group_symop_operation_xyz
  'x, y, z'

loop_
  _atom_site_type_symbol
  _atom_site_label
  _atom_site_symmetry_multiplicity
  _atom_site_fract_x
  _atom_site_fract_y
  _atom_site_fract_z
  _atom_site_occupancy
  C   C1        1.0  0.57400  0.96700  0.14800  1.0000
  C   C2        1.0  0.57500  0.65400  0.14900  1.0000
  C   C3        1.0  0.48400  0.83400  0.31300  1.0000
  C   C4        1.0  0.83000  0.83400  0.31300  1.0000
  C   C5        1.0  0.17000  0.16600  0.68700  1.0000
  C   C6        1.0  0.51600  0.16600  0.68700  1.0000
  C   C7        1.0  0.42500  0.34600  0.85100  1.0000
  C   C8        1.0  0.42600  0.03280  0.85200  1.0000
  H   H1        1.0  0.41800  0.65200  0.08990  1.0000
  H   H2        1.0  0.67200  0.65200  0.08990  1.0000
  H   H3        1.0  0.41800  0.95500  0.09030  1.0000
  H   H4        1.0  0.67300  0.95500  0.09030  1.0000
  H   H5        1.0  0.60300  0.09130  0.20600  1.0000
  H   H6        1.0  0.60400  0.54600  0.20800  1.0000
  H   H7        1.0  0.32900  0.82300  0.25200  1.0000
  H   H8        1.0  0.92300  0.82300  0.25200  1.0000
  H   H9        1.0  0.51200  0.96000  0.36900  1.0000
  H   H10       1.0  0.85800  0.96000  0.36900  1.0000
  H   H11       1.0  0.51900  0.72800  0.37500  1.0000
  H   H12       1.0  0.85600  0.72800  0.37500  1.0000
  H   H13       1.0  0.14400  0.27200  0.62500  1.0000
  H   H14       1.0  0.48100  0.27200  0.62500  1.0000
  H   H15       1.0  0.14200  0.04050  0.63100  1.0000
  H   H16       1.0  0.48800  0.04050  0.63100  1.0000
  H   H17       1.0  0.07700  0.17700  0.74800  1.0000
  H   H18       1.0  0.67100  0.17700  0.74800  1.0000
  H   H19       1.0  0.39600  0.45400  0.79200  1.0000
  H   H20       1.0  0.39700  0.90900  0.79400  1.0000
  H   H21       1.0  0.32700  0.04460  0.91000  1.0000
  H   H22       1.0  0.58200  0.04460  0.91000  1.0000
  H   H23       1.0  0.32800  0.34800  0.91000  1.0000
  H   H24       1.0  0.58200  0.34800  0.91000  1.0000
  N   N1        1.0  0.01150  0.20300  0.02310  1.0000
  N   N2        1.0  0.61600  0.82200  0.23200  1.0000
  N   N3        1.0  0.38400  0.17800  0.76800  1.0000
  N   N4        1.0  0.98800  0.79700  0.97700  1.0000
  O   O1        1.0  0.19700  0.23400  0.08520  1.0000
  O   O2        1.0  0.88800  0.23400  0.08520  1.0000
  O   O3        1.0  0.04470  0.85400  0.08950  1.0000
  O   O4        1.0  0.12500  0.54200  0.24900  1.0000
  O   O5        1.0  0.48500  0.33800  0.32900  1.0000
  O   O6        1.0  0.84400  0.33800  0.32900  1.0000
  O   O7        1.0  0.17400  0.11200  0.34900  1.0000
  O   O8        1.0  0.74600  0.55900  0.49200  1.0000
  O   O9        1.0  0.25400  0.44100  0.50800  1.0000
  O   O10       1.0  0.82600  0.88800  0.65100  1.0000
  O   O11       1.0  0.15600  0.66200  0.67100  1.0000
  O   O12       1.0  0.51500  0.66200  0.67100  1.0000
  O   O13       1.0  0.87500  0.45800  0.75100  1.0000
  O   O14       1.0  0.95500  0.14600  0.91100  1.0000
  O   O15       1.0  0.11200  0.76600  0.91500  1.0000
  O   O16       1.0  0.80300  0.76600  0.91500  1.0000
  Se  Se1       1.0  0.71800  0.34200  0.43700  1.0000
  Se  Se2       1.0  0.28200  0.65800  0.56300  1.0000
  U   U1        1.0  0.14900  0.32700  0.29800  1.0000
  U   U2        1.0  0.85100  0.67300  0.70200  1.0000
