data_image0
_chemical_formula_structural       C8H24N4O18S2U2
_chemical_formula_sum              "C8 H24 N4 O18 S2 U2"
_cell_length_a       6.9349
_cell_length_b       7.96124
_cell_length_c       10.776
_cell_angle_alpha    95.1962
_cell_angle_beta     108.77
_cell_angle_gamma    90

_space_group_name_H-M_alt    "P 1"
_space_group_IT_number       1

loop_
  _space_group_symop_operation_xyz
  'x, y, z'

loop_
  _atom_site_type_symbol
  _atom_site_label
  _atom_site_symmetry_multiplicity
  _atom_site_fract_x
  _atom_site_fract_y
  _atom_site_fract_z
  _atom_site_occupancy
  C   C1        1.0  0.07630  0.68400  0.15300  1.0000
  C   C2        1.0  0.08420  0.98900  0.16800  1.0000
  C   C3        1.0  0.99100  0.84500  0.33300  1.0000
  C   C4        1.0  0.34200  0.84500  0.33300  1.0000
  C   C5        1.0  0.65800  0.15500  0.66700  1.0000
  C   C6        1.0  0.00891  0.15500  0.66700  1.0000
  C   C7        1.0  0.91600  0.01060  0.83200  1.0000
  C   C8        1.0  0.92400  0.31600  0.84700  1.0000
  H   H1        1.0  0.91600  0.68500  0.09130  1.0000
  H   H2        1.0  0.17500  0.68500  0.09130  1.0000
  H   H3        1.0  0.92400  0.98500  0.10800  1.0000
  H   H4        1.0  0.18400  0.98500  0.10800  1.0000
  H   H5        1.0  0.10400  0.57300  0.20800  1.0000
  H   H6        1.0  0.11800  0.10400  0.23600  1.0000
  H   H7        1.0  0.83200  0.84200  0.27100  1.0000
  H   H8        1.0  0.43900  0.84200  0.27100  1.0000
  H   H9        1.0  0.36600  0.73600  0.39000  1.0000
  H   H10       1.0  0.02330  0.73600  0.39000  1.0000
  H   H11       1.0  0.36900  0.96200  0.39800  1.0000
  H   H12       1.0  0.02930  0.96200  0.39800  1.0000
  H   H13       1.0  0.97100  0.03790  0.60200  1.0000
  H   H14       1.0  0.63100  0.03790  0.60200  1.0000
  H   H15       1.0  0.97700  0.26400  0.61000  1.0000
  H   H16       1.0  0.63400  0.26400  0.61000  1.0000
  H   H17       1.0  0.56100  0.15800  0.72900  1.0000
  H   H18       1.0  0.16800  0.15800  0.72900  1.0000
  H   H19       1.0  0.88200  0.89600  0.76400  1.0000
  H   H20       1.0  0.89600  0.42700  0.79200  1.0000
  H   H21       1.0  0.81600  0.01530  0.89200  1.0000
  H   H22       1.0  0.07620  0.01530  0.89200  1.0000
  H   H23       1.0  0.82500  0.31500  0.90900  1.0000
  H   H24       1.0  0.08370  0.31500  0.90900  1.0000
  N   N1        1.0  0.50400  0.19700  0.00747  1.0000
  N   N2        1.0  0.12300  0.84000  0.24700  1.0000
  N   N3        1.0  0.87700  0.16000  0.75300  1.0000
  N   N4        1.0  0.49600  0.80300  0.99300  1.0000
  O   O1        1.0  0.69200  0.24000  0.06900  1.0000
  O   O2        1.0  0.37700  0.24000  0.06900  1.0000
  O   O3        1.0  0.55100  0.88200  0.10200  1.0000
  O   O4        1.0  0.60900  0.55700  0.21900  1.0000
  O   O5        1.0  0.99000  0.37800  0.31900  1.0000
  O   O6        1.0  0.32900  0.37800  0.31900  1.0000
  O   O7        1.0  0.67000  0.15300  0.34000  1.0000
  O   O8        1.0  0.23800  0.21700  0.47600  1.0000
  O   O9        1.0  0.25000  0.52700  0.49900  1.0000
  O   O10       1.0  0.75000  0.47300  0.50100  1.0000
  O   O11       1.0  0.76200  0.78300  0.52400  1.0000
  O   O12       1.0  0.33000  0.84700  0.66000  1.0000
  O   O13       1.0  0.67100  0.62200  0.68100  1.0000
  O   O14       1.0  0.01040  0.62200  0.68100  1.0000
  O   O15       1.0  0.39100  0.44300  0.78100  1.0000
  O   O16       1.0  0.44900  0.11800  0.89800  1.0000
  O   O17       1.0  0.62300  0.76000  0.93100  1.0000
  O   O18       1.0  0.30800  0.76000  0.93100  1.0000
  S   S1        1.0  0.20400  0.36800  0.40800  1.0000
  S   S2        1.0  0.79600  0.63200  0.59200  1.0000
  U   U1        1.0  0.64000  0.35500  0.28100  1.0000
  U   U2        1.0  0.36000  0.64500  0.71900  1.0000
