data_image0
_chemical_formula_structural       C4H28N8O16Te2
_chemical_formula_sum              "C4 H28 N8 O16 Te2"
_cell_length_a       8.34523
_cell_length_b       8.34523
_cell_length_c       8.64535
_cell_angle_alpha    100.279
_cell_angle_beta     109.897
_cell_angle_gamma    117.554

_space_group_name_H-M_alt    "P 1"
_space_group_IT_number       1

loop_
  _space_group_symop_operation_xyz
  'x, y, z'

loop_
  _atom_site_type_symbol
  _atom_site_label
  _atom_site_symmetry_multiplicity
  _atom_site_fract_x
  _atom_site_fract_y
  _atom_site_fract_z
  _atom_site_occupancy
  C   C1        1.0  0.13100  0.83900  0.01300  1.0000
  C   C2        1.0  0.32600  0.11800  0.48700  1.0000
  C   C3        1.0  0.67400  0.88200  0.51300  1.0000
  C   C4        1.0  0.86900  0.16100  0.98700  1.0000
  H   H1        1.0  0.38500  0.75400  0.04870  1.0000
  H   H2        1.0  0.18100  0.32500  0.06410  1.0000
  H   H3        1.0  0.74300  0.95800  0.08310  1.0000
  H   H4        1.0  0.97900  0.63900  0.09990  1.0000
  H   H5        1.0  0.62800  0.67900  0.15800  1.0000
  H   H6        1.0  0.01210  0.08640  0.18200  1.0000
  H   H7        1.0  0.50300  0.07750  0.19900  1.0000
  H   H8        1.0  0.37800  0.30400  0.30100  1.0000
  H   H9        1.0  0.40400  0.83000  0.31800  1.0000
  H   H10       1.0  0.02080  0.47000  0.34200  1.0000
  H   H11       1.0  0.03960  0.87900  0.40000  1.0000
  H   H12       1.0  0.37500  0.65900  0.41700  1.0000
  H   H13       1.0  0.76100  0.11700  0.43600  1.0000
  H   H14       1.0  0.20500  0.33600  0.45100  1.0000
  H   H15       1.0  0.79500  0.66400  0.54900  1.0000
  H   H16       1.0  0.23900  0.88300  0.56400  1.0000
  H   H17       1.0  0.62500  0.34100  0.58300  1.0000
  H   H18       1.0  0.96000  0.12100  0.60000  1.0000
  H   H19       1.0  0.97900  0.53000  0.65800  1.0000
  H   H20       1.0  0.59600  0.17000  0.68200  1.0000
  H   H21       1.0  0.62200  0.69600  0.69900  1.0000
  H   H22       1.0  0.49700  0.92300  0.80100  1.0000
  H   H23       1.0  0.98800  0.91400  0.81800  1.0000
  H   H24       1.0  0.37200  0.32100  0.84200  1.0000
  H   H25       1.0  0.02120  0.36100  0.90000  1.0000
  H   H26       1.0  0.25700  0.04150  0.91700  1.0000
  H   H27       1.0  0.81900  0.67500  0.93600  1.0000
  H   H28       1.0  0.61500  0.24600  0.95100  1.0000
  N   N1        1.0  0.96100  0.70100  0.00860  1.0000
  N   N2        1.0  0.87700  0.05960  0.08970  1.0000
  N   N3        1.0  0.47000  0.78700  0.41000  1.0000
  N   N4        1.0  0.19300  0.95200  0.49100  1.0000
  N   N5        1.0  0.80700  0.04760  0.50900  1.0000
  N   N6        1.0  0.53000  0.21300  0.59000  1.0000
  N   N7        1.0  0.12300  0.94000  0.91000  1.0000
  N   N8        1.0  0.03900  0.29900  0.99100  1.0000
  O   O1        1.0  0.45800  0.69800  0.01310  1.0000
  O   O2        1.0  0.30800  0.87600  0.12000  1.0000
  O   O3        1.0  0.42400  0.37700  0.22400  1.0000
  O   O4        1.0  0.75400  0.68800  0.24000  1.0000
  O   O5        1.0  0.94700  0.51400  0.26000  1.0000
  O   O6        1.0  0.65300  0.20000  0.27600  1.0000
  O   O7        1.0  0.25500  0.18700  0.38000  1.0000
  O   O8        1.0  0.18500  0.44500  0.48700  1.0000
  O   O9        1.0  0.81500  0.55500  0.51300  1.0000
  O   O10       1.0  0.74500  0.81300  0.62000  1.0000
  O   O11       1.0  0.34700  0.80000  0.72400  1.0000
  O   O12       1.0  0.05270  0.48600  0.74000  1.0000
  O   O13       1.0  0.24600  0.31200  0.76000  1.0000
  O   O14       1.0  0.57600  0.62300  0.77600  1.0000
  O   O15       1.0  0.69200  0.12400  0.88000  1.0000
  O   O16       1.0  0.54200  0.30200  0.98700  1.0000
  Te  Te1       1.0  0.68600  0.43600  0.25000  1.0000
  Te  Te2       1.0  0.31400  0.56400  0.75000  1.0000
