data_image0
_chemical_formula_structural       B8C4H44Mg4S2
_chemical_formula_sum              "B8 C4 H44 Mg4 S2"
_cell_length_a       7.5496
_cell_length_b       7.80374
_cell_length_c       12.306
_cell_angle_alpha    96.705
_cell_angle_beta     103.968
_cell_angle_gamma    61.0716

_space_group_name_H-M_alt    "P 1"
_space_group_IT_number       1

loop_
  _space_group_symop_operation_xyz
  'x, y, z'

loop_
  _atom_site_type_symbol
  _atom_site_label
  _atom_site_symmetry_multiplicity
  _atom_site_fract_x
  _atom_site_fract_y
  _atom_site_fract_z
  _atom_site_occupancy
  B   B1        1.0  0.62900  0.67500  0.11800  1.0000
  B   B2        1.0  0.06790  0.31500  0.32600  1.0000
  B   B3        1.0  0.56300  0.34400  0.35400  1.0000
  B   B4        1.0  0.52700  0.82700  0.39600  1.0000
  B   B5        1.0  0.30400  0.32500  0.61800  1.0000
  B   B6        1.0  0.38300  0.68500  0.82600  1.0000
  B   B7        1.0  0.90700  0.65600  0.85400  1.0000
  B   B8        1.0  0.35500  0.17300  0.89600  1.0000
  C   C1        1.0  0.89200  0.09950  0.00149  1.0000
  C   C2        1.0  0.05370  0.80100  0.15400  1.0000
  C   C3        1.0  0.99200  0.90000  0.50100  1.0000
  C   C4        1.0  0.85500  0.19900  0.65400  1.0000
  H   H1        1.0  0.74000  0.58700  0.05070  1.0000
  H   H2        1.0  0.95500  0.18800  0.05600  1.0000
  H   H3        1.0  0.48700  0.83700  0.08890  1.0000
  H   H4        1.0  0.14100  0.70200  0.09310  1.0000
  H   H5        1.0  0.55100  0.57400  0.13000  1.0000
  H   H6        1.0  0.74100  0.69700  0.20300  1.0000
  H   H7        1.0  0.14100  0.87100  0.20600  1.0000
  H   H8        1.0  0.02610  0.71700  0.20800  1.0000
  H   H9        1.0  0.94800  0.27700  0.25400  1.0000
  H   H10       1.0  0.49600  0.42100  0.26100  1.0000
  H   H11       1.0  0.20300  0.30200  0.28300  1.0000
  H   H12       1.0  0.42500  0.76300  0.32900  1.0000
  H   H13       1.0  0.61200  0.17100  0.33600  1.0000
  H   H14       1.0  0.54200  0.94300  0.34300  1.0000
  H   H15       1.0  0.98900  0.48100  0.36500  1.0000
  H   H16       1.0  0.12900  0.20000  0.40300  1.0000
  H   H17       1.0  0.42700  0.43300  0.40600  1.0000
  H   H18       1.0  0.71800  0.35200  0.40800  1.0000
  H   H19       1.0  0.70400  0.70200  0.43500  1.0000
  H   H20       1.0  0.95200  0.80500  0.44000  1.0000
  H   H21       1.0  0.99600  0.01290  0.45800  1.0000
  H   H22       1.0  0.44000  0.89600  0.47400  1.0000
  H   H23       1.0  0.32700  0.41300  0.55100  1.0000
  H   H24       1.0  0.14300  0.81200  0.55600  1.0000
  H   H25       1.0  0.32500  0.16300  0.58900  1.0000
  H   H26       1.0  0.84300  0.29800  0.59300  1.0000
  H   H27       1.0  0.12500  0.42600  0.63000  1.0000
  H   H28       1.0  0.43800  0.30300  0.70300  1.0000
  H   H29       1.0  0.01180  0.12900  0.70600  1.0000
  H   H30       1.0  0.74300  0.28300  0.70800  1.0000
  H   H31       1.0  0.22500  0.72300  0.75400  1.0000
  H   H32       1.0  0.91600  0.57900  0.76100  1.0000
  H   H33       1.0  0.50500  0.69800  0.78300  1.0000
  H   H34       1.0  0.18800  0.23700  0.82900  1.0000
  H   H35       1.0  0.78300  0.82900  0.83600  1.0000
  H   H36       1.0  0.48500  0.05740  0.84300  1.0000
  H   H37       1.0  0.47000  0.51900  0.86500  1.0000
  H   H38       1.0  0.32900  0.80000  0.90300  1.0000
  H   H39       1.0  0.85900  0.56700  0.90600  1.0000
  H   H40       1.0  0.07020  0.64800  0.90800  1.0000
  H   H41       1.0  0.40600  0.29800  0.93500  1.0000
  H   H42       1.0  0.75600  0.19500  0.94000  1.0000
  H   H43       1.0  0.00864  0.98700  0.95800  1.0000
  H   H44       1.0  0.33700  0.10400  0.97400  1.0000
  Mg  Mg1       1.0  0.69700  0.53100  0.29600  1.0000
  Mg  Mg2       1.0  0.42700  0.17600  0.44300  1.0000
  Mg  Mg3       1.0  0.22800  0.46900  0.79600  1.0000
  Mg  Mg4       1.0  0.60300  0.82400  0.94300  1.0000
  S   S1        1.0  0.80600  0.98900  0.08390  1.0000
  S   S2        1.0  0.79400  0.01140  0.58400  1.0000
