data_image0
_chemical_formula_structural       C8H32N4O8P4S4
_chemical_formula_sum              "C8 H32 N4 O8 P4 S4"
_cell_length_a       5.32485
_cell_length_b       8.93068
_cell_length_c       13.508
_cell_angle_alpha    90
_cell_angle_beta     100.643
_cell_angle_gamma    90

_space_group_name_H-M_alt    "P 1"
_space_group_IT_number       1

loop_
  _space_group_symop_operation_xyz
  'x, y, z'

loop_
  _atom_site_type_symbol
  _atom_site_label
  _atom_site_symmetry_multiplicity
  _atom_site_fract_x
  _atom_site_fract_y
  _atom_site_fract_z
  _atom_site_occupancy
  C   C1        1.0  0.71700  0.91500  0.11600  1.0000
  C   C2        1.0  0.27900  0.23000  0.18200  1.0000
  C   C3        1.0  0.22100  0.73000  0.31800  1.0000
  C   C4        1.0  0.78300  0.41500  0.38400  1.0000
  C   C5        1.0  0.21700  0.58500  0.61600  1.0000
  C   C6        1.0  0.77900  0.27000  0.68200  1.0000
  C   C7        1.0  0.72100  0.77000  0.81800  1.0000
  C   C8        1.0  0.28300  0.08550  0.88400  1.0000
  H   H1        1.0  0.76500  0.49900  0.02060  1.0000
  H   H2        1.0  0.56100  0.84200  0.07850  1.0000
  H   H3        1.0  0.68400  0.02960  0.08830  1.0000
  H   H4        1.0  0.29900  0.20200  0.10500  1.0000
  H   H5        1.0  0.61200  0.56300  0.11400  1.0000
  H   H6        1.0  0.08760  0.19700  0.19300  1.0000
  H   H7        1.0  0.31000  0.35000  0.19600  1.0000
  H   H8        1.0  0.72600  0.91300  0.19700  1.0000
  H   H9        1.0  0.77400  0.41300  0.30300  1.0000
  H   H10       1.0  0.19000  0.85000  0.30400  1.0000
  H   H11       1.0  0.41200  0.69700  0.30700  1.0000
  H   H12       1.0  0.88800  0.06270  0.38600  1.0000
  H   H13       1.0  0.20100  0.70200  0.39500  1.0000
  H   H14       1.0  0.81600  0.53000  0.41200  1.0000
  H   H15       1.0  0.93900  0.34200  0.42100  1.0000
  H   H16       1.0  0.73500  0.99900  0.47900  1.0000
  H   H17       1.0  0.26500  0.00064  0.52100  1.0000
  H   H18       1.0  0.06110  0.65800  0.57900  1.0000
  H   H19       1.0  0.18400  0.47000  0.58800  1.0000
  H   H20       1.0  0.79900  0.29800  0.60500  1.0000
  H   H21       1.0  0.11200  0.93700  0.61400  1.0000
  H   H22       1.0  0.58800  0.30300  0.69300  1.0000
  H   H23       1.0  0.81000  0.15000  0.69600  1.0000
  H   H24       1.0  0.22600  0.58700  0.69700  1.0000
  H   H25       1.0  0.27400  0.08680  0.80300  1.0000
  H   H26       1.0  0.69000  0.65000  0.80400  1.0000
  H   H27       1.0  0.91200  0.80300  0.80700  1.0000
  H   H28       1.0  0.38800  0.43700  0.88600  1.0000
  H   H29       1.0  0.70100  0.79800  0.89500  1.0000
  H   H30       1.0  0.31600  0.97000  0.91200  1.0000
  H   H31       1.0  0.43900  0.15800  0.92100  1.0000
  H   H32       1.0  0.23500  0.50100  0.97900  1.0000
  N   N1        1.0  0.78500  0.53600  0.09440  1.0000
  N   N2        1.0  0.71500  0.03600  0.40600  1.0000
  N   N3        1.0  0.28500  0.96400  0.59400  1.0000
  N   N4        1.0  0.21500  0.46400  0.90600  1.0000
  O   O1        1.0  0.27600  0.57600  0.10800  1.0000
  O   O2        1.0  0.47300  0.14300  0.24800  1.0000
  O   O3        1.0  0.02740  0.64300  0.25200  1.0000
  O   O4        1.0  0.22400  0.07590  0.39200  1.0000
  O   O5        1.0  0.77600  0.92400  0.60800  1.0000
  O   O6        1.0  0.97300  0.35700  0.74800  1.0000
  O   O7        1.0  0.52700  0.85700  0.75200  1.0000
  O   O8        1.0  0.72400  0.42400  0.89200  1.0000
  P   P1        1.0  0.03590  0.63800  0.13500  1.0000
  P   P2        1.0  0.46400  0.13800  0.36500  1.0000
  P   P3        1.0  0.53600  0.86200  0.63500  1.0000
  P   P4        1.0  0.96400  0.36200  0.86500  1.0000
  S   S1        1.0  0.01880  0.85800  0.08350  1.0000
  S   S2        1.0  0.48100  0.35800  0.41700  1.0000
  S   S3        1.0  0.51900  0.64200  0.58300  1.0000
  S   S4        1.0  0.98100  0.14200  0.91700  1.0000
