data_image0
_chemical_formula_structural       C8H12N12Na4O16P4
_chemical_formula_sum              "C8 H12 N12 Na4 O16 P4"
_cell_length_a       6.909
_cell_length_b       12.314
_cell_length_c       6.989
_cell_angle_alpha    90
_cell_angle_beta     105.41
_cell_angle_gamma    90

_space_group_name_H-M_alt    "P 1"
_space_group_IT_number       1

loop_
  _space_group_symop_operation_xyz
  'x, y, z'

loop_
  _atom_site_type_symbol
  _atom_site_label
  _atom_site_symmetry_multiplicity
  _atom_site_fract_x
  _atom_site_fract_y
  _atom_site_fract_z
  _atom_site_occupancy
  C   C1        1.0  0.35000  0.29800  0.07290  1.0000
  C   C2        1.0  0.02120  0.23500  0.11500  1.0000
  C   C3        1.0  0.47900  0.73500  0.38500  1.0000
  C   C4        1.0  0.15000  0.79800  0.42700  1.0000
  C   C5        1.0  0.85000  0.20200  0.57300  1.0000
  C   C6        1.0  0.52100  0.26500  0.61500  1.0000
  C   C7        1.0  0.97900  0.76500  0.88500  1.0000
  C   C8        1.0  0.65000  0.70200  0.92700  1.0000
  H   H1        1.0  0.87900  0.70000  0.02580  1.0000
  H   H2        1.0  0.95000  0.08990  0.14000  1.0000
  H   H3        1.0  0.46200  0.20000  0.21300  1.0000
  H   H4        1.0  0.03790  0.70000  0.28700  1.0000
  H   H5        1.0  0.55000  0.59000  0.36000  1.0000
  H   H6        1.0  0.62100  0.20000  0.47400  1.0000
  H   H7        1.0  0.37900  0.80000  0.52600  1.0000
  H   H8        1.0  0.45000  0.41000  0.64000  1.0000
  H   H9        1.0  0.96200  0.30000  0.71300  1.0000
  H   H10       1.0  0.53800  0.80000  0.78700  1.0000
  H   H11       1.0  0.05010  0.91000  0.86000  1.0000
  H   H12       1.0  0.12100  0.30000  0.97400  1.0000
  N   N1        1.0  0.41000  0.19300  0.04560  1.0000
  N   N2        1.0  0.07240  0.13000  0.11300  1.0000
  N   N3        1.0  0.17000  0.31200  0.13000  1.0000
  N   N4        1.0  0.33000  0.81200  0.37000  1.0000
  N   N5        1.0  0.42800  0.63000  0.38700  1.0000
  N   N6        1.0  0.09020  0.69300  0.45400  1.0000
  N   N7        1.0  0.91000  0.30700  0.54600  1.0000
  N   N8        1.0  0.57200  0.37000  0.61300  1.0000
  N   N9        1.0  0.67000  0.18800  0.63000  1.0000
  N   N10       1.0  0.83000  0.68800  0.87000  1.0000
  N   N11       1.0  0.92800  0.87000  0.88700  1.0000
  N   N12       1.0  0.59000  0.80700  0.95400  1.0000
  Na  Na1       1.0  0.75700  0.45500  0.09910  1.0000
  Na  Na2       1.0  0.74300  0.95500  0.40100  1.0000
  Na  Na3       1.0  0.25700  0.04530  0.59900  1.0000
  Na  Na4       1.0  0.24300  0.54500  0.90100  1.0000
  O   O1        1.0  0.44200  0.37800  0.04330  1.0000
  O   O2        1.0  0.73500  0.99400  0.07040  1.0000
  O   O3        1.0  0.85100  0.26500  0.11700  1.0000
  O   O4        1.0  0.10400  0.52800  0.19600  1.0000
  O   O5        1.0  0.39600  0.02830  0.30400  1.0000
  O   O6        1.0  0.64900  0.76500  0.38300  1.0000
  O   O7        1.0  0.76500  0.49400  0.43000  1.0000
  O   O8        1.0  0.05790  0.87800  0.45700  1.0000
  O   O9        1.0  0.94200  0.12200  0.54300  1.0000
  O   O10       1.0  0.23500  0.50600  0.57000  1.0000
  O   O11       1.0  0.35100  0.23500  0.61700  1.0000
  O   O12       1.0  0.60400  0.97200  0.69600  1.0000
  O   O13       1.0  0.89600  0.47200  0.80400  1.0000
  O   O14       1.0  0.14900  0.73500  0.88300  1.0000
  O   O15       1.0  0.26500  0.00601  0.93000  1.0000
  O   O16       1.0  0.55800  0.62200  0.95700  1.0000
  P   P1        1.0  0.29700  0.07750  0.10700  1.0000
  P   P2        1.0  0.20300  0.57700  0.39300  1.0000
  P   P3        1.0  0.79700  0.42300  0.60700  1.0000
  P   P4        1.0  0.70300  0.92300  0.89300  1.0000
