data_image0
_chemical_formula_structural       C24H6O24Rh2Ru6
_chemical_formula_sum              "C24 H6 O24 Rh2 Ru6"
_cell_length_a       8.09529
_cell_length_b       8.95048
_cell_length_c       13.3011
_cell_angle_alpha    82.5599
_cell_angle_beta     80.249
_cell_angle_gamma    68.9018

_space_group_name_H-M_alt    "P 1"
_space_group_IT_number       1

loop_
  _space_group_symop_operation_xyz
  'x, y, z'

loop_
  _atom_site_type_symbol
  _atom_site_label
  _atom_site_symmetry_multiplicity
  _atom_site_fract_x
  _atom_site_fract_y
  _atom_site_fract_z
  _atom_site_occupancy
  C   C1        1.0  0.65200  0.79300  0.03400  1.0000
  C   C2        1.0  0.01400  0.65400  0.08590  1.0000
  C   C3        1.0  0.80900  0.99800  0.11000  1.0000
  C   C4        1.0  0.59000  0.51000  0.15900  1.0000
  C   C5        1.0  0.33100  0.90300  0.18400  1.0000
  C   C6        1.0  0.92900  0.38900  0.21700  1.0000
  C   C7        1.0  0.46900  0.10100  0.26100  1.0000
  C   C8        1.0  0.08500  0.63900  0.30200  1.0000
  C   C9        1.0  0.87700  0.95900  0.32400  1.0000
  C   C10       1.0  0.62000  0.41300  0.36700  1.0000
  C   C11       1.0  0.29600  0.91100  0.39600  1.0000
  C   C12       1.0  0.85400  0.72200  0.48600  1.0000
  C   C13       1.0  0.14600  0.27800  0.51400  1.0000
  C   C14       1.0  0.70400  0.08900  0.60400  1.0000
  C   C15       1.0  0.38000  0.58700  0.63300  1.0000
  C   C16       1.0  0.12300  0.04090  0.67600  1.0000
  C   C17       1.0  0.91500  0.36100  0.69800  1.0000
  C   C18       1.0  0.53100  0.89900  0.73900  1.0000
  C   C19       1.0  0.07120  0.61100  0.78300  1.0000
  C   C20       1.0  0.66900  0.09700  0.81600  1.0000
  C   C21       1.0  0.41000  0.49000  0.84100  1.0000
  C   C22       1.0  0.19100  0.00191  0.89000  1.0000
  C   C23       1.0  0.98600  0.34600  0.91400  1.0000
  C   C24       1.0  0.34800  0.20700  0.96600  1.0000
  H   H1        1.0  0.49300  0.68000  0.31600  1.0000
  H   H2        1.0  0.79700  0.57500  0.36900  1.0000
  H   H3        1.0  0.61000  0.85600  0.38700  1.0000
  H   H4        1.0  0.39000  0.14400  0.61300  1.0000
  H   H5        1.0  0.20300  0.42500  0.63100  1.0000
  H   H6        1.0  0.50700  0.32000  0.68400  1.0000
  O   O1        1.0  0.42300  0.20000  0.03440  1.0000
  O   O2        1.0  0.14900  0.57100  0.04630  1.0000
  O   O3        1.0  0.82900  0.12100  0.08860  1.0000
  O   O4        1.0  0.51400  0.48800  0.09970  1.0000
  O   O5        1.0  0.23300  0.91500  0.12700  1.0000
  O   O6        1.0  0.06470  0.29300  0.19000  1.0000
  O   O7        1.0  0.46000  0.23400  0.25100  1.0000
  O   O8        1.0  0.23500  0.56500  0.28100  1.0000
  O   O9        1.0  0.89900  0.08130  0.31400  1.0000
  O   O10       1.0  0.13200  0.30200  0.42700  1.0000
  O   O11       1.0  0.55900  0.34000  0.43200  1.0000
  O   O12       1.0  0.18100  0.92600  0.46200  1.0000
  O   O13       1.0  0.81900  0.07420  0.53800  1.0000
  O   O14       1.0  0.44100  0.66000  0.56800  1.0000
  O   O15       1.0  0.86800  0.69800  0.57300  1.0000
  O   O16       1.0  0.10100  0.91900  0.68600  1.0000
  O   O17       1.0  0.76500  0.43500  0.71900  1.0000
  O   O18       1.0  0.54000  0.76600  0.74900  1.0000
  O   O19       1.0  0.93500  0.70700  0.81000  1.0000
  O   O20       1.0  0.76700  0.08550  0.87300  1.0000
  O   O21       1.0  0.48600  0.51200  0.90000  1.0000
  O   O22       1.0  0.17100  0.87900  0.91100  1.0000
  O   O23       1.0  0.85100  0.42900  0.95400  1.0000
  O   O24       1.0  0.57700  0.80000  0.96600  1.0000
  Rh  Rh1       1.0  0.78300  0.79100  0.14100  1.0000
  Rh  Rh2       1.0  0.21700  0.20900  0.85900  1.0000
  Ru  Ru1       1.0  0.70500  0.54500  0.26300  1.0000
  Ru  Ru2       1.0  0.48300  0.88200  0.28400  1.0000
  Ru  Ru3       1.0  0.84100  0.75800  0.34300  1.0000
  Ru  Ru4       1.0  0.15900  0.24200  0.65700  1.0000
  Ru  Ru5       1.0  0.51700  0.11800  0.71600  1.0000
  Ru  Ru6       1.0  0.29500  0.45500  0.73700  1.0000
