data_image0
_chemical_formula_structural       C8H32N4O16P4
_chemical_formula_sum              "C8 H32 N4 O16 P4"
_cell_length_a       8.86715
_cell_length_b       8.86715
_cell_length_c       8.86715
_cell_angle_alpha    108.215
_cell_angle_beta     112.014
_cell_angle_gamma    108.215

_space_group_name_H-M_alt    "P 1"
_space_group_IT_number       1

loop_
  _space_group_symop_operation_xyz
  'x, y, z'

loop_
  _atom_site_type_symbol
  _atom_site_label
  _atom_site_symmetry_multiplicity
  _atom_site_fract_x
  _atom_site_fract_y
  _atom_site_fract_z
  _atom_site_occupancy
  C   C1        1.0  0.80900  0.18500  0.02610  1.0000
  C   C2        1.0  0.97400  0.78300  0.15900  1.0000
  C   C3        1.0  0.37600  0.21700  0.19100  1.0000
  C   C4        1.0  0.12400  0.75700  0.28000  1.0000
  C   C5        1.0  0.52300  0.24300  0.36700  1.0000
  C   C6        1.0  0.72000  0.84400  0.47700  1.0000
  C   C7        1.0  0.84100  0.81500  0.62400  1.0000
  C   C8        1.0  0.63300  0.15600  0.87600  1.0000
  H   H1        1.0  0.74500  0.51300  0.01050  1.0000
  H   H2        1.0  0.39600  0.16300  0.07520  1.0000
  H   H3        1.0  0.26100  0.35300  0.08340  1.0000
  H   H4        1.0  0.92500  0.32100  0.08770  1.0000
  H   H5        1.0  0.03310  0.87800  0.11700  1.0000
  H   H6        1.0  0.68200  0.04010  0.13300  1.0000
  H   H7        1.0  0.23900  0.12200  0.15500  1.0000
  H   H8        1.0  0.18800  0.70600  0.20600  1.0000
  H   H9        1.0  0.60300  0.75100  0.20900  1.0000
  H   H10       1.0  0.49700  0.48700  0.23200  1.0000
  H   H11       1.0  0.91200  0.83700  0.23300  1.0000
  H   H12       1.0  0.76800  0.26500  0.25500  1.0000
  H   H13       1.0  0.91700  0.17700  0.27000  1.0000
  H   H14       1.0  0.35800  0.45100  0.31800  1.0000
  H   H15       1.0  0.51200  0.10900  0.34300  1.0000
  H   H16       1.0  0.14800  0.60600  0.39700  1.0000
  H   H17       1.0  0.23400  0.89100  0.40300  1.0000
  H   H18       1.0  0.50000  0.29400  0.48200  1.0000
  H   H19       1.0  0.59700  0.83100  0.48800  1.0000
  H   H20       1.0  0.79400  0.98200  0.50000  1.0000
  H   H21       1.0  0.99000  0.73500  0.50300  1.0000
  H   H22       1.0  0.79100  0.39400  0.54200  1.0000
  H   H23       1.0  0.76700  0.67900  0.60400  1.0000
  H   H24       1.0  0.09310  0.96000  0.64200  1.0000
  H   H25       1.0  0.09230  0.82300  0.73900  1.0000
  H   H26       1.0  0.88300  0.91600  0.76100  1.0000
  H   H27       1.0  0.65700  0.16900  0.76600  1.0000
  H   H28       1.0  0.51800  0.01810  0.81200  1.0000
  H   H29       1.0  0.45800  0.24900  0.85200  1.0000
  H   H30       1.0  0.86700  0.54900  0.90700  1.0000
  H   H31       1.0  0.73000  0.64700  0.90800  1.0000
  H   H32       1.0  0.84500  0.08380  0.96700  1.0000
  N   N1        1.0  0.79100  0.16700  0.18000  1.0000
  N   N2        1.0  0.37600  0.38800  0.20900  1.0000
  N   N3        1.0  0.01270  0.83300  0.62400  1.0000
  N   N4        1.0  0.82000  0.61200  0.98700  1.0000
  O   O1        1.0  0.51600  0.85900  0.11100  1.0000
  O   O2        1.0  0.66600  0.71200  0.29700  1.0000
  O   O3        1.0  0.04610  0.63100  0.33400  1.0000
  O   O4        1.0  0.12600  0.18400  0.36600  1.0000
  O   O5        1.0  0.70300  0.36900  0.41500  1.0000
  O   O6        1.0  0.34300  0.59500  0.48400  1.0000
  O   O7        1.0  0.05490  0.30100  0.60800  1.0000
  O   O8        1.0  0.25200  0.14100  0.65700  1.0000
  O   O9        1.0  0.39200  0.44700  0.69400  1.0000
  O   O10       1.0  0.88900  0.40500  0.74800  1.0000
  O   O11       1.0  0.30600  0.69900  0.75400  1.0000
  O   O12       1.0  0.63400  0.76000  0.81900  1.0000
  O   O13       1.0  0.05870  0.24000  0.87400  1.0000
  O   O14       1.0  0.18100  0.81600  0.94100  1.0000
  O   O15       1.0  0.24600  0.55300  0.94500  1.0000
  O   O16       1.0  0.58500  0.28800  0.95400  1.0000
  P   P1        1.0  0.20300  0.25200  0.56900  1.0000
  P   P2        1.0  0.43100  0.63500  0.68300  1.0000
  P   P3        1.0  0.04860  0.36500  0.79700  1.0000
  P   P4        1.0  0.31700  0.74800  0.95100  1.0000
