data_image0
_chemical_formula_structural       N2Te2U2
_chemical_formula_sum              "N2 Te2 U2"
_cell_length_a       3.91447
_cell_length_b       3.91447
_cell_length_c       7.52505
_cell_angle_alpha    90
_cell_angle_beta     90
_cell_angle_gamma    90

_space_group_name_H-M_alt    "P 1"
_space_group_IT_number       1

loop_
  _space_group_symop_operation_xyz
  'x, y, z'

loop_
  _atom_site_type_symbol
  _atom_site_label
  _atom_site_symmetry_multiplicity
  _atom_site_fract_x
  _atom_site_fract_y
  _atom_site_fract_z
  _atom_site_occupancy
  N   N1        1.0  0.00000  0.00000  0.00000  1.0000
  N   N2        1.0  0.50000  0.50000  0.00000  1.0000
  Te  Te1       1.0  0.00000  0.50000  0.36900  1.0000
  Te  Te2       1.0  0.50000  0.00000  0.63100  1.0000
  U   U1        1.0  0.50000  0.00000  0.15200  1.0000
  U   U2        1.0  0.00000  0.50000  0.84800  1.0000
