data_image0
_chemical_formula_structural       C12H24In3N3O30
_chemical_formula_sum              "C12 H24 In3 N3 O30"
_cell_length_a       8.91
_cell_length_b       8.91015
_cell_length_c       11.2441
_cell_angle_alpha    90
_cell_angle_beta     90
_cell_angle_gamma    120

_space_group_name_H-M_alt    "P 1"
_space_group_IT_number       1

loop_
  _space_group_symop_operation_xyz
  'x, y, z'

loop_
  _atom_site_type_symbol
  _atom_site_label
  _atom_site_symmetry_multiplicity
  _atom_site_fract_x
  _atom_site_fract_y
  _atom_site_fract_z
  _atom_site_occupancy
  C   C1        1.0  0.42200  0.21100  0.16700  1.0000
  C   C2        1.0  0.57800  0.78900  0.16700  1.0000
  C   C3        1.0  0.62300  0.31100  0.16700  1.0000
  C   C4        1.0  0.37700  0.68900  0.16700  1.0000
  C   C5        1.0  0.21100  0.42200  0.50000  1.0000
  C   C6        1.0  0.78900  0.57800  0.50000  1.0000
  C   C7        1.0  0.68900  0.37700  0.50000  1.0000
  C   C8        1.0  0.31100  0.62300  0.50000  1.0000
  C   C9        1.0  0.68900  0.31100  0.83300  1.0000
  C   C10       1.0  0.31100  0.68900  0.83300  1.0000
  C   C11       1.0  0.78900  0.21100  0.83300  1.0000
  C   C12       1.0  0.21100  0.78900  0.83300  1.0000
  H   H1        1.0  0.97400  0.07970  0.05370  1.0000
  H   H2        1.0  0.02560  0.92000  0.05370  1.0000
  H   H3        1.0  0.89800  0.26100  0.15400  1.0000
  H   H4        1.0  0.10200  0.73900  0.15400  1.0000
  H   H5        1.0  0.10200  0.36300  0.17900  1.0000
  H   H6        1.0  0.89800  0.63700  0.17900  1.0000
  H   H7        1.0  0.02560  0.10500  0.28000  1.0000
  H   H8        1.0  0.97400  0.89500  0.28000  1.0000
  H   H9        1.0  0.10500  0.02560  0.38700  1.0000
  H   H10       1.0  0.89500  0.97400  0.38700  1.0000
  H   H11       1.0  0.36300  0.10200  0.48700  1.0000
  H   H12       1.0  0.63700  0.89800  0.48700  1.0000
  H   H13       1.0  0.73900  0.10200  0.51300  1.0000
  H   H14       1.0  0.26100  0.89800  0.51300  1.0000
  H   H15       1.0  0.92000  0.02560  0.61300  1.0000
  H   H16       1.0  0.07970  0.97400  0.61300  1.0000
  H   H17       1.0  0.07970  0.10500  0.72000  1.0000
  H   H18       1.0  0.92000  0.89500  0.72000  1.0000
  H   H19       1.0  0.26100  0.36300  0.82100  1.0000
  H   H20       1.0  0.73900  0.63700  0.82100  1.0000
  H   H21       1.0  0.36300  0.26100  0.84600  1.0000
  H   H22       1.0  0.63700  0.73900  0.84600  1.0000
  H   H23       1.0  0.10500  0.07970  0.94600  1.0000
  H   H24       1.0  0.89500  0.92000  0.94600  1.0000
  In  In1       1.0  0.50000  0.00000  0.00000  1.0000
  In  In2       1.0  0.50000  0.50000  0.33300  1.0000
  In  In3       1.0  0.00000  0.50000  0.66700  1.0000
  N   N1        1.0  0.00000  0.00000  0.00000  1.0000
  N   N2        1.0  0.00000  0.00000  0.33300  1.0000
  N   N3        1.0  0.00000  0.00000  0.66700  1.0000
  O   O1        1.0  0.34400  0.07300  0.10700  1.0000
  O   O2        1.0  0.65600  0.92700  0.10700  1.0000
  O   O3        1.0  0.69700  0.24500  0.10900  1.0000
  O   O4        1.0  0.30300  0.75500  0.10900  1.0000
  O   O5        1.0  0.00000  0.24600  0.16700  1.0000
  O   O6        1.0  0.00000  0.75400  0.16700  1.0000
  O   O7        1.0  0.69700  0.45200  0.22400  1.0000
  O   O8        1.0  0.30300  0.54800  0.22400  1.0000
  O   O9        1.0  0.34400  0.27100  0.22600  1.0000
  O   O10       1.0  0.65600  0.72900  0.22600  1.0000
  O   O11       1.0  0.27100  0.34400  0.44100  1.0000
  O   O12       1.0  0.72900  0.65600  0.44100  1.0000
  O   O13       1.0  0.54800  0.30300  0.44200  1.0000
  O   O14       1.0  0.45200  0.69700  0.44200  1.0000
  O   O15       1.0  0.24600  0.00000  0.50000  1.0000
  O   O16       1.0  0.75400  0.00000  0.50000  1.0000
  O   O17       1.0  0.75500  0.30300  0.55800  1.0000
  O   O18       1.0  0.24500  0.69700  0.55800  1.0000
  O   O19       1.0  0.07300  0.34400  0.55900  1.0000
  O   O20       1.0  0.92700  0.65600  0.55900  1.0000
  O   O21       1.0  0.92700  0.27100  0.77400  1.0000
  O   O22       1.0  0.07290  0.72900  0.77400  1.0000
  O   O23       1.0  0.75500  0.45200  0.77600  1.0000
  O   O24       1.0  0.24500  0.54800  0.77600  1.0000
  O   O25       1.0  0.24600  0.24600  0.83300  1.0000
  O   O26       1.0  0.75400  0.75400  0.83300  1.0000
  O   O27       1.0  0.54800  0.24500  0.89100  1.0000
  O   O28       1.0  0.45200  0.75500  0.89100  1.0000
  O   O29       1.0  0.72900  0.07300  0.89300  1.0000
  O   O30       1.0  0.27100  0.92700  0.89300  1.0000
