data_image0
_chemical_formula_structural       C8H20Na4O32Rb8
_chemical_formula_sum              "C8 H20 Na4 O32 Rb8"
_cell_length_a       9.32835
_cell_length_b       7.88273
_cell_length_c       11.7815
_cell_angle_alpha    90
_cell_angle_beta     90
_cell_angle_gamma    90

_space_group_name_H-M_alt    "P 1"
_space_group_IT_number       1

loop_
  _space_group_symop_operation_xyz
  'x, y, z'

loop_
  _atom_site_type_symbol
  _atom_site_label
  _atom_site_symmetry_multiplicity
  _atom_site_fract_x
  _atom_site_fract_y
  _atom_site_fract_z
  _atom_site_occupancy
  C   C1        1.0  0.85800  0.75000  0.13100  1.0000
  C   C2        1.0  0.84800  0.25000  0.14700  1.0000
  C   C3        1.0  0.34800  0.25000  0.35300  1.0000
  C   C4        1.0  0.35800  0.75000  0.36900  1.0000
  C   C5        1.0  0.64200  0.25000  0.63100  1.0000
  C   C6        1.0  0.65200  0.75000  0.64700  1.0000
  C   C7        1.0  0.15200  0.75000  0.85300  1.0000
  C   C8        1.0  0.14200  0.25000  0.86900  1.0000
  H   H1        1.0  0.00388  0.25000  0.02900  1.0000
  H   H2        1.0  0.61800  0.61400  0.12800  1.0000
  H   H3        1.0  0.61800  0.88600  0.12800  1.0000
  H   H4        1.0  0.48000  0.62000  0.20500  1.0000
  H   H5        1.0  0.48000  0.88000  0.20500  1.0000
  H   H6        1.0  0.98000  0.62000  0.29500  1.0000
  H   H7        1.0  0.98000  0.88000  0.29500  1.0000
  H   H8        1.0  0.11800  0.61400  0.37200  1.0000
  H   H9        1.0  0.11800  0.88600  0.37200  1.0000
  H   H10       1.0  0.50400  0.25000  0.47100  1.0000
  H   H11       1.0  0.49600  0.75000  0.52900  1.0000
  H   H12       1.0  0.88200  0.11400  0.62800  1.0000
  H   H13       1.0  0.88200  0.38600  0.62800  1.0000
  H   H14       1.0  0.01980  0.12000  0.70500  1.0000
  H   H15       1.0  0.01980  0.38000  0.70500  1.0000
  H   H16       1.0  0.52000  0.12000  0.79500  1.0000
  H   H17       1.0  0.52000  0.38000  0.79500  1.0000
  H   H18       1.0  0.38200  0.11400  0.87200  1.0000
  H   H19       1.0  0.38200  0.38600  0.87200  1.0000
  H   H20       1.0  0.99600  0.75000  0.97100  1.0000
  Na  Na1       1.0  0.55400  0.25000  0.17600  1.0000
  Na  Na2       1.0  0.05420  0.25000  0.32400  1.0000
  Na  Na3       1.0  0.94600  0.75000  0.67600  1.0000
  Na  Na4       1.0  0.44600  0.75000  0.82400  1.0000
  O   O1        1.0  0.75800  0.25000  0.06540  1.0000
  O   O2        1.0  0.74400  0.75000  0.06750  1.0000
  O   O3        1.0  0.98500  0.75000  0.08550  1.0000
  O   O4        1.0  0.99000  0.25000  0.12200  1.0000
  O   O5        1.0  0.54500  0.54000  0.16400  1.0000
  O   O6        1.0  0.54500  0.96000  0.16400  1.0000
  O   O7        1.0  0.84800  0.75000  0.24100  1.0000
  O   O8        1.0  0.31500  0.25000  0.24800  1.0000
  O   O9        1.0  0.81500  0.25000  0.25200  1.0000
  O   O10       1.0  0.34800  0.75000  0.25900  1.0000
  O   O11       1.0  0.04490  0.54000  0.33600  1.0000
  O   O12       1.0  0.04490  0.96000  0.33600  1.0000
  O   O13       1.0  0.49000  0.25000  0.37800  1.0000
  O   O14       1.0  0.48500  0.75000  0.41500  1.0000
  O   O15       1.0  0.24400  0.75000  0.43300  1.0000
  O   O16       1.0  0.25800  0.25000  0.43500  1.0000
  O   O17       1.0  0.74200  0.75000  0.56500  1.0000
  O   O18       1.0  0.75600  0.25000  0.56700  1.0000
  O   O19       1.0  0.51500  0.25000  0.58500  1.0000
  O   O20       1.0  0.51000  0.75000  0.62200  1.0000
  O   O21       1.0  0.95500  0.03990  0.66400  1.0000
  O   O22       1.0  0.95500  0.46000  0.66400  1.0000
  O   O23       1.0  0.65200  0.25000  0.74100  1.0000
  O   O24       1.0  0.18500  0.75000  0.74800  1.0000
  O   O25       1.0  0.68500  0.75000  0.75200  1.0000
  O   O26       1.0  0.15200  0.25000  0.75900  1.0000
  O   O27       1.0  0.45500  0.03990  0.83600  1.0000
  O   O28       1.0  0.45500  0.46000  0.83600  1.0000
  O   O29       1.0  0.01030  0.75000  0.87800  1.0000
  O   O30       1.0  0.01510  0.25000  0.91500  1.0000
  O   O31       1.0  0.25600  0.25000  0.93300  1.0000
  O   O32       1.0  0.24200  0.75000  0.93500  1.0000
  Rb  Rb1       1.0  0.21800  0.51000  0.10900  1.0000
  Rb  Rb2       1.0  0.21800  0.99000  0.10900  1.0000
  Rb  Rb3       1.0  0.71800  0.51000  0.39100  1.0000
  Rb  Rb4       1.0  0.71800  0.99000  0.39100  1.0000
  Rb  Rb5       1.0  0.28200  0.00965  0.60900  1.0000
  Rb  Rb6       1.0  0.28200  0.49000  0.60900  1.0000
  Rb  Rb7       1.0  0.78200  0.00965  0.89100  1.0000
  Rb  Rb8       1.0  0.78200  0.49000  0.89100  1.0000
