data_image0
_chemical_formula_structural       Ag2O2Se2Sn2
_chemical_formula_sum              "Ag2 O2 Se2 Sn2"
_cell_length_a       3.74225
_cell_length_b       3.74224
_cell_length_c       13.105
_cell_angle_alpha    90
_cell_angle_beta     90
_cell_angle_gamma    120

_space_group_name_H-M_alt    "P 1"
_space_group_IT_number       1

loop_
  _space_group_symop_operation_xyz
  'x, y, z'

loop_
  _atom_site_type_symbol
  _atom_site_label
  _atom_site_symmetry_multiplicity
  _atom_site_fract_x
  _atom_site_fract_y
  _atom_site_fract_z
  _atom_site_occupancy
  Ag  Ag1       1.0  0.00000  0.00000  0.49200  1.0000
  Ag  Ag2       1.0  0.00000  0.00000  0.99200  1.0000
  O   O1        1.0  0.00000  0.00000  0.32100  1.0000
  O   O2        1.0  0.00000  0.00000  0.82100  1.0000
  Se  Se1       1.0  0.66700  0.33300  0.11700  1.0000
  Se  Se2       1.0  0.33300  0.66700  0.61700  1.0000
  Sn  Sn1       1.0  0.33300  0.66700  0.25700  1.0000
  Sn  Sn2       1.0  0.66700  0.33300  0.75700  1.0000
