data_image0
_chemical_formula_structural       C16H36N4O16
_chemical_formula_sum              "C16 H36 N4 O16"
_cell_length_a       5.53316
_cell_length_b       9.22625
_cell_length_c       12.0554
_cell_angle_alpha    90
_cell_angle_beta     111.927
_cell_angle_gamma    90

_space_group_name_H-M_alt    "P 1"
_space_group_IT_number       1

loop_
  _space_group_symop_operation_xyz
  'x, y, z'

loop_
  _atom_site_type_symbol
  _atom_site_label
  _atom_site_symmetry_multiplicity
  _atom_site_fract_x
  _atom_site_fract_y
  _atom_site_fract_z
  _atom_site_occupancy
  C   C1        1.0  0.08120  0.66700  0.02260  1.0000
  C   C2        1.0  0.21400  0.30100  0.02950  1.0000
  C   C3        1.0  0.77500  0.98800  0.13900  1.0000
  C   C4        1.0  0.25300  0.95100  0.23600  1.0000
  C   C5        1.0  0.74700  0.45100  0.26400  1.0000
  C   C6        1.0  0.22500  0.48800  0.36100  1.0000
  C   C7        1.0  0.78600  0.80100  0.47100  1.0000
  C   C8        1.0  0.91900  0.16700  0.47700  1.0000
  C   C9        1.0  0.08120  0.83300  0.52300  1.0000
  C   C10       1.0  0.21400  0.19900  0.52900  1.0000
  C   C11       1.0  0.77500  0.51200  0.63900  1.0000
  C   C12       1.0  0.25300  0.54900  0.73600  1.0000
  C   C13       1.0  0.74700  0.04880  0.76400  1.0000
  C   C14       1.0  0.22500  0.01160  0.86100  1.0000
  C   C15       1.0  0.78600  0.69900  0.97100  1.0000
  C   C16       1.0  0.91900  0.33300  0.97700  1.0000
  H   H1        1.0  0.45300  0.68400  0.00269  1.0000
  H   H2        1.0  0.77600  0.96500  0.04980  1.0000
  H   H3        1.0  0.62400  0.06790  0.13200  1.0000
  H   H4        1.0  0.26200  0.92000  0.15000  1.0000
  H   H5        1.0  0.06640  0.14400  0.17500  1.0000
  H   H6        1.0  0.74300  0.88900  0.18100  1.0000
  H   H7        1.0  0.98500  0.57800  0.20400  1.0000
  H   H8        1.0  0.56800  0.50800  0.21000  1.0000
  H   H9        1.0  0.77300  0.35500  0.21700  1.0000
  H   H10       1.0  0.22700  0.85500  0.28300  1.0000
  H   H11       1.0  0.43200  0.00806  0.29000  1.0000
  H   H12       1.0  0.01450  0.07830  0.29600  1.0000
  H   H13       1.0  0.25700  0.38900  0.31900  1.0000
  H   H14       1.0  0.93400  0.64400  0.32500  1.0000
  H   H15       1.0  0.73800  0.42000  0.35000  1.0000
  H   H16       1.0  0.37600  0.56800  0.36800  1.0000
  H   H17       1.0  0.22400  0.46500  0.45000  1.0000
  H   H18       1.0  0.54700  0.18400  0.49700  1.0000
  H   H19       1.0  0.45300  0.81600  0.50300  1.0000
  H   H20       1.0  0.77600  0.53500  0.55000  1.0000
  H   H21       1.0  0.62400  0.43200  0.63200  1.0000
  H   H22       1.0  0.26200  0.58000  0.65000  1.0000
  H   H23       1.0  0.06640  0.35600  0.67500  1.0000
  H   H24       1.0  0.74300  0.61100  0.68100  1.0000
  H   H25       1.0  0.98500  0.92200  0.70400  1.0000
  H   H26       1.0  0.56800  0.99200  0.71000  1.0000
  H   H27       1.0  0.77300  0.14500  0.71700  1.0000
  H   H28       1.0  0.22700  0.64500  0.78300  1.0000
  H   H29       1.0  0.43200  0.49200  0.79000  1.0000
  H   H30       1.0  0.01450  0.42200  0.79600  1.0000
  H   H31       1.0  0.25700  0.11100  0.81900  1.0000
  H   H32       1.0  0.93400  0.85600  0.82500  1.0000
  H   H33       1.0  0.73800  0.08020  0.85000  1.0000
  H   H34       1.0  0.37600  0.93200  0.86800  1.0000
  H   H35       1.0  0.22400  0.03480  0.95000  1.0000
  H   H36       1.0  0.54700  0.31600  0.99700  1.0000
  N   N1        1.0  0.03000  0.05030  0.21400  1.0000
  N   N2        1.0  0.97000  0.55000  0.28600  1.0000
  N   N3        1.0  0.03000  0.45000  0.71400  1.0000
  N   N4        1.0  0.97000  0.95000  0.78600  1.0000
  O   O1        1.0  0.79400  0.28000  0.03870  1.0000
  O   O2        1.0  0.66600  0.65400  0.03870  1.0000
  O   O3        1.0  0.17600  0.59700  0.11800  1.0000
  O   O4        1.0  0.31400  0.23600  0.12600  1.0000
  O   O5        1.0  0.68600  0.73600  0.37400  1.0000
  O   O6        1.0  0.82400  0.09660  0.38200  1.0000
  O   O7        1.0  0.33400  0.15400  0.46100  1.0000
  O   O8        1.0  0.20600  0.78000  0.46100  1.0000
  O   O9        1.0  0.79400  0.22000  0.53900  1.0000
  O   O10       1.0  0.66600  0.84600  0.53900  1.0000
  O   O11       1.0  0.17600  0.90300  0.61800  1.0000
  O   O12       1.0  0.31400  0.26400  0.62600  1.0000
  O   O13       1.0  0.68600  0.76400  0.87400  1.0000
  O   O14       1.0  0.82400  0.40300  0.88200  1.0000
  O   O15       1.0  0.33400  0.34600  0.96100  1.0000
  O   O16       1.0  0.20600  0.72000  0.96100  1.0000
