data_image0
_chemical_formula_structural       C2H40Na4O26
_chemical_formula_sum              "C2 H40 Na4 O26"
_cell_length_a       7.50362
_cell_length_b       7.50362
_cell_length_c       11.7808
_cell_angle_alpha    98.4014
_cell_angle_beta     105.357
_cell_angle_gamma    110.783

_space_group_name_H-M_alt    "P 1"
_space_group_IT_number       1

loop_
  _space_group_symop_operation_xyz
  'x, y, z'

loop_
  _atom_site_type_symbol
  _atom_site_label
  _atom_site_symmetry_multiplicity
  _atom_site_fract_x
  _atom_site_fract_y
  _atom_site_fract_z
  _atom_site_occupancy
  C   C1        1.0  0.50000  0.50000  0.01430  1.0000
  C   C2        1.0  0.01400  0.51500  0.51400  1.0000
  H   H1        1.0  0.85000  0.68600  0.01530  1.0000
  H   H2        1.0  0.50800  0.81100  0.05900  1.0000
  H   H3        1.0  0.07810  0.76600  0.10200  1.0000
  H   H4        1.0  0.27100  0.61700  0.12100  1.0000
  H   H5        1.0  0.78400  0.40800  0.15200  1.0000
  H   H6        1.0  0.58400  0.00948  0.16300  1.0000
  H   H7        1.0  0.40000  0.34500  0.17300  1.0000
  H   H8        1.0  0.10800  0.56100  0.18800  1.0000
  H   H9        1.0  0.66100  0.62900  0.24300  1.0000
  H   H10       1.0  0.44900  0.15400  0.26000  1.0000
  H   H11       1.0  0.91200  0.39100  0.27700  1.0000
  H   H12       1.0  0.33100  0.36700  0.29000  1.0000
  H   H13       1.0  0.88300  0.93000  0.31800  1.0000
  H   H14       1.0  0.68100  0.20900  0.33700  1.0000
  H   H15       1.0  0.99400  0.16300  0.37500  1.0000
  H   H16       1.0  0.79200  0.68100  0.38400  1.0000
  H   H17       1.0  0.17800  0.99400  0.39900  1.0000
  H   H18       1.0  0.23000  0.46400  0.42900  1.0000
  H   H19       1.0  0.16600  0.84600  0.47900  1.0000
  H   H20       1.0  0.46200  0.50400  0.48400  1.0000
  H   H21       1.0  0.82900  0.16500  0.51500  1.0000
  H   H22       1.0  0.74800  0.55100  0.55900  1.0000
  H   H23       1.0  0.83700  0.02430  0.60200  1.0000
  H   H24       1.0  0.00348  0.85000  0.62100  1.0000
  H   H25       1.0  0.24400  0.36800  0.65200  1.0000
  H   H26       1.0  0.65400  0.57900  0.66300  1.0000
  H   H27       1.0  0.32800  0.77300  0.67300  1.0000
  H   H28       1.0  0.12700  0.08050  0.68800  1.0000
  H   H29       1.0  0.11400  0.58200  0.74300  1.0000
  H   H30       1.0  0.60600  0.81100  0.76000  1.0000
  H   H31       1.0  0.38600  0.36600  0.77700  1.0000
  H   H32       1.0  0.42300  0.95900  0.79000  1.0000
  H   H33       1.0  0.88800  0.43500  0.81800  1.0000
  H   H34       1.0  0.62800  0.65600  0.83700  1.0000
  H   H35       1.0  0.71200  0.38000  0.87500  1.0000
  H   H36       1.0  0.20300  0.59200  0.88400  1.0000
  H   H37       1.0  0.90400  0.22000  0.89900  1.0000
  H   H38       1.0  0.46500  0.19900  0.92900  1.0000
  H   H39       1.0  0.13300  0.31300  0.97900  1.0000
  H   H40       1.0  0.47900  0.02190  0.98400  1.0000
  Na  Na1       1.0  0.95700  0.09500  0.12400  1.0000
  Na  Na2       1.0  0.47200  0.83300  0.37400  1.0000
  Na  Na3       1.0  0.52900  0.16700  0.62400  1.0000
  Na  Na4       1.0  0.04100  0.90200  0.87400  1.0000
  O   O1        1.0  0.35300  0.55600  0.00528  1.0000
  O   O2        1.0  0.97800  0.80400  0.04760  1.0000
  O   O3        1.0  0.59900  0.95300  0.08420  1.0000
  O   O4        1.0  0.57800  0.45700  0.11200  1.0000
  O   O5        1.0  0.22100  0.67500  0.18000  1.0000
  O   O6        1.0  0.90700  0.38700  0.19200  1.0000
  O   O7        1.0  0.31300  0.26900  0.21500  1.0000
  O   O8        1.0  0.55300  0.09700  0.28500  1.0000
  O   O9        1.0  0.00179  0.05250  0.32200  1.0000
  O   O10       1.0  0.71300  0.72900  0.32300  1.0000
  O   O11       1.0  0.35700  0.52000  0.41400  1.0000
  O   O12       1.0  0.93800  0.35700  0.42400  1.0000
  O   O13       1.0  0.26400  0.94100  0.45200  1.0000
  O   O14       1.0  0.94900  0.65200  0.50500  1.0000
  O   O15       1.0  0.74300  0.06940  0.54800  1.0000
  O   O16       1.0  0.63200  0.48500  0.58400  1.0000
  O   O17       1.0  0.15500  0.53400  0.61200  1.0000
  O   O18       1.0  0.00559  0.95900  0.68000  1.0000
  O   O19       1.0  0.30500  0.28500  0.69200  1.0000
  O   O20       1.0  0.44600  0.90200  0.71500  1.0000
  O   O21       1.0  0.68800  0.73100  0.78500  1.0000
  O   O22       1.0  0.77000  0.32000  0.82200  1.0000
  O   O23       1.0  0.09440  0.61000  0.82300  1.0000
  O   O24       1.0  0.39500  0.05670  0.91400  1.0000
  O   O25       1.0  0.56700  0.48600  0.92400  1.0000
  O   O26       1.0  0.01140  0.18800  0.95200  1.0000
