data_image0
_chemical_formula_structural       Ba4C8H28O30
_chemical_formula_sum              "Ba4 C8 H28 O30"
_cell_length_a       7.33726
_cell_length_b       7.50714
_cell_length_c       14.1981
_cell_angle_alpha    100.016
_cell_angle_beta     104.974
_cell_angle_gamma    60.7458

_space_group_name_H-M_alt    "P 1"
_space_group_IT_number       1

loop_
  _space_group_symop_operation_xyz
  'x, y, z'

loop_
  _atom_site_type_symbol
  _atom_site_label
  _atom_site_symmetry_multiplicity
  _atom_site_fract_x
  _atom_site_fract_y
  _atom_site_fract_z
  _atom_site_occupancy
  Ba  Ba1       1.0  0.25900  0.57700  0.22000  1.0000
  Ba  Ba2       1.0  0.61600  0.92300  0.28000  1.0000
  Ba  Ba3       1.0  0.38400  0.07750  0.72000  1.0000
  Ba  Ba4       1.0  0.74100  0.42300  0.78000  1.0000
  C   C1        1.0  0.79100  0.28100  0.02210  1.0000
  C   C2        1.0  0.26300  0.87800  0.04690  1.0000
  C   C3        1.0  0.09470  0.62200  0.45300  1.0000
  C   C4        1.0  0.05010  0.21900  0.47800  1.0000
  C   C5        1.0  0.95000  0.78100  0.52200  1.0000
  C   C6        1.0  0.90500  0.37800  0.54700  1.0000
  C   C7        1.0  0.73700  0.12200  0.95300  1.0000
  C   C8        1.0  0.20900  0.71900  0.97800  1.0000
  H   H1        1.0  0.81100  0.59100  0.07020  1.0000
  H   H2        1.0  0.81000  0.80200  0.08020  1.0000
  H   H3        1.0  0.37900  0.13600  0.08330  1.0000
  H   H4        1.0  0.58800  0.15400  0.09640  1.0000
  H   H5        1.0  0.90200  0.06220  0.18700  1.0000
  H   H6        1.0  0.09150  0.22600  0.19400  1.0000
  H   H7        1.0  0.74000  0.44000  0.19900  1.0000
  H   H8        1.0  0.98100  0.05980  0.30100  1.0000
  H   H9        1.0  0.12400  0.27400  0.30600  1.0000
  H   H10       1.0  0.77700  0.43800  0.31300  1.0000
  H   H11       1.0  0.64500  0.34600  0.40400  1.0000
  H   H12       1.0  0.43200  0.36400  0.41700  1.0000
  H   H13       1.0  0.53200  0.69800  0.42000  1.0000
  H   H14       1.0  0.33200  0.90900  0.43000  1.0000
  H   H15       1.0  0.66800  0.09120  0.57000  1.0000
  H   H16       1.0  0.46800  0.30200  0.58000  1.0000
  H   H17       1.0  0.56800  0.63600  0.58300  1.0000
  H   H18       1.0  0.35500  0.65400  0.59600  1.0000
  H   H19       1.0  0.22300  0.56200  0.68700  1.0000
  H   H20       1.0  0.87600  0.72600  0.69400  1.0000
  H   H21       1.0  0.01910  0.94000  0.69900  1.0000
  H   H22       1.0  0.26000  0.56000  0.80100  1.0000
  H   H23       1.0  0.90800  0.77400  0.80600  1.0000
  H   H24       1.0  0.09790  0.93800  0.81300  1.0000
  H   H25       1.0  0.41200  0.84600  0.90400  1.0000
  H   H26       1.0  0.62100  0.86400  0.91700  1.0000
  H   H27       1.0  0.19000  0.19800  0.92000  1.0000
  H   H28       1.0  0.18900  0.40900  0.93000  1.0000
  O   O1        1.0  0.25500  0.02130  0.00629  1.0000
  O   O2        1.0  0.22400  0.57200  0.01600  1.0000
  O   O3        1.0  0.84100  0.25300  0.11300  1.0000
  O   O4        1.0  0.83000  0.69700  0.12000  1.0000
  O   O5        1.0  0.47300  0.19000  0.13000  1.0000
  O   O6        1.0  0.31500  0.85200  0.13700  1.0000
  O   O7        1.0  0.94100  0.98000  0.24300  1.0000
  O   O8        1.0  0.19000  0.25000  0.25000  1.0000
  O   O9        1.0  0.67800  0.52000  0.25700  1.0000
  O   O10       1.0  0.03030  0.64800  0.36300  1.0000
  O   O11       1.0  0.53200  0.31000  0.37000  1.0000
  O   O12       1.0  0.40700  0.80300  0.38000  1.0000
  O   O13       1.0  0.98200  0.24700  0.38700  1.0000
  O   O14       1.0  0.78000  0.92800  0.48400  1.0000
  O   O15       1.0  0.27000  0.47900  0.49400  1.0000
  O   O16       1.0  0.73000  0.52100  0.50600  1.0000
  O   O17       1.0  0.22000  0.07220  0.51600  1.0000
  O   O18       1.0  0.01840  0.75300  0.61300  1.0000
  O   O19       1.0  0.59300  0.19700  0.62000  1.0000
  O   O20       1.0  0.46800  0.69000  0.63000  1.0000
  O   O21       1.0  0.97000  0.35200  0.63700  1.0000
  O   O22       1.0  0.32200  0.48000  0.74300  1.0000
  O   O23       1.0  0.81000  0.75000  0.75000  1.0000
  O   O24       1.0  0.05890  0.02000  0.75700  1.0000
  O   O25       1.0  0.68500  0.14800  0.86300  1.0000
  O   O26       1.0  0.52700  0.81000  0.87000  1.0000
  O   O27       1.0  0.17000  0.30300  0.88000  1.0000
  O   O28       1.0  0.15900  0.74700  0.88700  1.0000
  O   O29       1.0  0.77600  0.42800  0.98400  1.0000
  O   O30       1.0  0.74500  0.97900  0.99400  1.0000
