data_image0
_chemical_formula_structural       C16H48In2P2Si4
_chemical_formula_sum              "C16 H48 In2 P2 Si4"
_cell_length_a       9.2549
_cell_length_b       9.57473
_cell_length_c       9.75665
_cell_angle_alpha    77.4271
_cell_angle_beta     80.949
_cell_angle_gamma    64.7085

_space_group_name_H-M_alt    "P 1"
_space_group_IT_number       1

loop_
  _space_group_symop_operation_xyz
  'x, y, z'

loop_
  _atom_site_type_symbol
  _atom_site_label
  _atom_site_symmetry_multiplicity
  _atom_site_fract_x
  _atom_site_fract_y
  _atom_site_fract_z
  _atom_site_occupancy
  C   C1        1.0  0.38200  0.33900  0.02130  1.0000
  C   C2        1.0  0.18300  0.78100  0.09620  1.0000
  C   C3        1.0  0.73600  0.79200  0.17500  1.0000
  C   C4        1.0  0.85900  0.43600  0.19400  1.0000
  C   C5        1.0  0.26100  0.00915  0.22100  1.0000
  C   C6        1.0  0.65300  0.14700  0.34400  1.0000
  C   C7        1.0  0.08820  0.81400  0.40300  1.0000
  C   C8        1.0  0.21600  0.37100  0.42500  1.0000
  C   C9        1.0  0.78400  0.62900  0.57500  1.0000
  C   C10       1.0  0.91200  0.18600  0.59700  1.0000
  C   C11       1.0  0.34700  0.85300  0.65600  1.0000
  C   C12       1.0  0.73900  0.99100  0.77900  1.0000
  C   C13       1.0  0.14100  0.56400  0.80600  1.0000
  C   C14       1.0  0.26400  0.20800  0.82500  1.0000
  C   C15       1.0  0.81700  0.21900  0.90400  1.0000
  C   C16       1.0  0.61800  0.66100  0.97900  1.0000
  H   H1        1.0  0.26700  0.78400  0.00318  1.0000
  H   H2        1.0  0.41700  0.43000  0.03660  1.0000
  H   H3        1.0  0.48200  0.22500  0.04570  1.0000
  H   H4        1.0  0.06430  0.87300  0.07080  1.0000
  H   H5        1.0  0.83400  0.79500  0.09620  1.0000
  H   H6        1.0  0.28100  0.34000  0.09910  1.0000
  H   H7        1.0  0.17400  0.66800  0.11600  1.0000
  H   H8        1.0  0.96000  0.43800  0.11700  1.0000
  H   H9        1.0  0.35000  0.01570  0.13400  1.0000
  H   H10       1.0  0.63400  0.90600  0.15800  1.0000
  H   H11       1.0  0.83300  0.33800  0.18100  1.0000
  H   H12       1.0  0.14500  0.10500  0.19500  1.0000
  H   H13       1.0  0.63100  0.14900  0.23600  1.0000
  H   H14       1.0  0.77600  0.77700  0.28000  1.0000
  H   H15       1.0  0.90000  0.41200  0.29900  1.0000
  H   H16       1.0  0.29700  0.03030  0.31500  1.0000
  H   H17       1.0  0.18400  0.39400  0.31600  1.0000
  H   H18       1.0  0.77100  0.14700  0.34400  1.0000
  H   H19       1.0  0.97200  0.90700  0.37300  1.0000
  H   H20       1.0  0.65200  0.03820  0.40900  1.0000
  H   H21       1.0  0.07550  0.70200  0.42600  1.0000
  H   H22       1.0  0.20700  0.26100  0.47700  1.0000
  H   H23       1.0  0.12800  0.46600  0.47900  1.0000
  H   H24       1.0  0.88500  0.16600  0.49900  1.0000
  H   H25       1.0  0.11500  0.83400  0.50100  1.0000
  H   H26       1.0  0.87200  0.53400  0.52100  1.0000
  H   H27       1.0  0.79300  0.73900  0.52300  1.0000
  H   H28       1.0  0.92500  0.29800  0.57400  1.0000
  H   H29       1.0  0.34800  0.96200  0.59100  1.0000
  H   H30       1.0  0.02840  0.09270  0.62700  1.0000
  H   H31       1.0  0.22900  0.85300  0.65600  1.0000
  H   H32       1.0  0.81600  0.60600  0.68400  1.0000
  H   H33       1.0  0.70300  0.97000  0.68500  1.0000
  H   H34       1.0  0.09990  0.58800  0.70100  1.0000
  H   H35       1.0  0.22400  0.22300  0.72000  1.0000
  H   H36       1.0  0.36900  0.85100  0.76400  1.0000
  H   H37       1.0  0.85500  0.89500  0.80500  1.0000
  H   H38       1.0  0.16700  0.66200  0.81900  1.0000
  H   H39       1.0  0.36600  0.09380  0.84200  1.0000
  H   H40       1.0  0.65000  0.98400  0.86600  1.0000
  H   H41       1.0  0.04040  0.56200  0.88300  1.0000
  H   H42       1.0  0.82600  0.33200  0.88400  1.0000
  H   H43       1.0  0.71900  0.66000  0.90100  1.0000
  H   H44       1.0  0.16600  0.20500  0.90400  1.0000
  H   H45       1.0  0.93600  0.12700  0.92900  1.0000
  H   H46       1.0  0.51800  0.77500  0.95400  1.0000
  H   H47       1.0  0.58300  0.57000  0.96300  1.0000
  H   H48       1.0  0.73300  0.21600  0.99700  1.0000
  In  In1       1.0  0.46100  0.34800  0.42600  1.0000
  In  In2       1.0  0.53900  0.65200  0.57400  1.0000
  P   P1        1.0  0.48100  0.62100  0.32600  1.0000
  P   P2        1.0  0.51900  0.37900  0.67400  1.0000
  Si  Si1       1.0  0.68100  0.62800  0.16100  1.0000
  Si  Si2       1.0  0.24500  0.81500  0.25700  1.0000
  Si  Si3       1.0  0.75500  0.18500  0.74300  1.0000
  Si  Si4       1.0  0.31900  0.37200  0.83900  1.0000
