data_image0
_chemical_formula_structural       C8H8K12O40V4
_chemical_formula_sum              "C8 H8 K12 O40 V4"
_cell_length_a       6.97536
_cell_length_b       7.67448
_cell_length_c       17.2702
_cell_angle_alpha    90
_cell_angle_beta     98.509
_cell_angle_gamma    90

_space_group_name_H-M_alt    "P 1"
_space_group_IT_number       1

loop_
  _space_group_symop_operation_xyz
  'x, y, z'

loop_
  _atom_site_type_symbol
  _atom_site_label
  _atom_site_symmetry_multiplicity
  _atom_site_fract_x
  _atom_site_fract_y
  _atom_site_fract_z
  _atom_site_occupancy
  C   C1        1.0  0.84500  0.19700  0.00173  1.0000
  C   C2        1.0  0.24700  0.97400  0.03360  1.0000
  C   C3        1.0  0.75300  0.47400  0.46600  1.0000
  C   C4        1.0  0.15500  0.69700  0.49800  1.0000
  C   C5        1.0  0.84500  0.30300  0.50200  1.0000
  C   C6        1.0  0.24700  0.52600  0.53400  1.0000
  C   C7        1.0  0.75300  0.02640  0.96600  1.0000
  C   C8        1.0  0.15500  0.80300  0.99800  1.0000
  H   H1        1.0  0.39100  0.25400  0.05090  1.0000
  H   H2        1.0  0.41300  0.41200  0.11200  1.0000
  H   H3        1.0  0.58700  0.91200  0.38800  1.0000
  H   H4        1.0  0.60900  0.75400  0.44900  1.0000
  H   H5        1.0  0.39100  0.24600  0.55100  1.0000
  H   H6        1.0  0.41300  0.08790  0.61200  1.0000
  H   H7        1.0  0.58700  0.58800  0.88800  1.0000
  H   H8        1.0  0.60900  0.74600  0.94900  1.0000
  K   K1        1.0  0.79600  0.55300  0.07790  1.0000
  K   K2        1.0  0.66700  0.02810  0.15700  1.0000
  K   K3        1.0  0.14600  0.17900  0.20400  1.0000
  K   K4        1.0  0.85400  0.67900  0.29600  1.0000
  K   K5        1.0  0.33300  0.52800  0.34300  1.0000
  K   K6        1.0  0.20400  0.05260  0.42200  1.0000
  K   K7        1.0  0.79600  0.94700  0.57800  1.0000
  K   K8        1.0  0.66700  0.47200  0.65700  1.0000
  K   K9        1.0  0.14600  0.32100  0.70400  1.0000
  K   K10       1.0  0.85400  0.82100  0.79600  1.0000
  K   K11       1.0  0.33300  0.97200  0.84300  1.0000
  K   K12       1.0  0.20400  0.44700  0.92200  1.0000
  O   O1        1.0  0.73000  0.90000  0.01070  1.0000
  O   O2        1.0  0.14700  0.67800  0.04780  1.0000
  O   O3        1.0  0.90200  0.20900  0.07320  1.0000
  O   O4        1.0  0.48300  0.33900  0.07930  1.0000
  O   O5        1.0  0.29400  0.97100  0.10800  1.0000
  O   O6        1.0  0.51100  0.68300  0.14500  1.0000
  O   O7        1.0  0.00338  0.83200  0.17700  1.0000
  O   O8        1.0  0.19000  0.51500  0.18400  1.0000
  O   O9        1.0  0.49700  0.74500  0.22400  1.0000
  O   O10       1.0  0.15100  0.84200  0.24600  1.0000
  O   O11       1.0  0.84900  0.34200  0.25400  1.0000
  O   O12       1.0  0.50300  0.24500  0.27600  1.0000
  O   O13       1.0  0.81000  0.01460  0.31600  1.0000
  O   O14       1.0  0.99700  0.33200  0.32300  1.0000
  O   O15       1.0  0.48900  0.18300  0.35500  1.0000
  O   O16       1.0  0.70600  0.47100  0.39200  1.0000
  O   O17       1.0  0.51700  0.83900  0.42100  1.0000
  O   O18       1.0  0.09800  0.70900  0.42700  1.0000
  O   O19       1.0  0.85300  0.17800  0.45200  1.0000
  O   O20       1.0  0.27000  0.40000  0.48900  1.0000
  O   O21       1.0  0.73000  0.60000  0.51100  1.0000
  O   O22       1.0  0.14700  0.82200  0.54800  1.0000
  O   O23       1.0  0.90200  0.29100  0.57300  1.0000
  O   O24       1.0  0.48300  0.16100  0.57900  1.0000
  O   O25       1.0  0.29400  0.52900  0.60800  1.0000
  O   O26       1.0  0.51100  0.81700  0.64500  1.0000
  O   O27       1.0  0.00338  0.66800  0.67700  1.0000
  O   O28       1.0  0.19000  0.98500  0.68400  1.0000
  O   O29       1.0  0.49700  0.75500  0.72400  1.0000
  O   O30       1.0  0.15100  0.65800  0.74600  1.0000
  O   O31       1.0  0.84900  0.15800  0.75400  1.0000
  O   O32       1.0  0.50300  0.25500  0.77600  1.0000
  O   O33       1.0  0.81000  0.48500  0.81600  1.0000
  O   O34       1.0  0.99700  0.16800  0.82300  1.0000
  O   O35       1.0  0.48900  0.31700  0.85500  1.0000
  O   O36       1.0  0.70600  0.02890  0.89200  1.0000
  O   O37       1.0  0.51700  0.66100  0.92100  1.0000
  O   O38       1.0  0.09800  0.79100  0.92700  1.0000
  O   O39       1.0  0.85300  0.32200  0.95200  1.0000
  O   O40       1.0  0.27000  0.09970  0.98900  1.0000
  V   V1        1.0  0.24800  0.71900  0.16500  1.0000
  V   V2        1.0  0.75200  0.21900  0.33500  1.0000
  V   V3        1.0  0.24800  0.78100  0.66500  1.0000
  V   V4        1.0  0.75200  0.28100  0.83500  1.0000
