data_image0
_chemical_formula_structural       Br8C16H44N4
_chemical_formula_sum              "Br8 C16 H44 N4"
_cell_length_a       19.4123
_cell_length_b       6.90619
_cell_length_c       5.69725
_cell_angle_alpha    90
_cell_angle_beta     90
_cell_angle_gamma    90

_space_group_name_H-M_alt    "P 1"
_space_group_IT_number       1

loop_
  _space_group_symop_operation_xyz
  'x, y, z'

loop_
  _atom_site_type_symbol
  _atom_site_label
  _atom_site_symmetry_multiplicity
  _atom_site_fract_x
  _atom_site_fract_y
  _atom_site_fract_z
  _atom_site_occupancy
  Br  Br1       1.0  0.74300  0.75000  0.05300  1.0000
  Br  Br2       1.0  0.41600  0.25000  0.12300  1.0000
  Br  Br3       1.0  0.91600  0.25000  0.37700  1.0000
  Br  Br4       1.0  0.24300  0.75000  0.44700  1.0000
  Br  Br5       1.0  0.75700  0.25000  0.55300  1.0000
  Br  Br6       1.0  0.08400  0.75000  0.62300  1.0000
  Br  Br7       1.0  0.58400  0.75000  0.87700  1.0000
  Br  Br8       1.0  0.25700  0.25000  0.94700  1.0000
  C   C1        1.0  0.95900  0.75000  0.14000  1.0000
  C   C2        1.0  0.11100  0.07280  0.14600  1.0000
  C   C3        1.0  0.11100  0.42700  0.14600  1.0000
  C   C4        1.0  0.83600  0.75000  0.18600  1.0000
  C   C5        1.0  0.33600  0.75000  0.31400  1.0000
  C   C6        1.0  0.61100  0.07280  0.35400  1.0000
  C   C7        1.0  0.61100  0.42700  0.35400  1.0000
  C   C8        1.0  0.45900  0.75000  0.36000  1.0000
  C   C9        1.0  0.54100  0.25000  0.64000  1.0000
  C   C10       1.0  0.38900  0.57300  0.64600  1.0000
  C   C11       1.0  0.38900  0.92700  0.64600  1.0000
  C   C12       1.0  0.66400  0.25000  0.68600  1.0000
  C   C13       1.0  0.16400  0.25000  0.81400  1.0000
  C   C14       1.0  0.88900  0.57300  0.85400  1.0000
  C   C15       1.0  0.88900  0.92700  0.85400  1.0000
  C   C16       1.0  0.04140  0.25000  0.86000  1.0000
  H   H1        1.0  0.00057  0.75000  0.01040  1.0000
  H   H2        1.0  0.10900  0.55500  0.03190  1.0000
  H   H3        1.0  0.10900  0.94500  0.03190  1.0000
  H   H4        1.0  0.34100  0.61700  0.20900  1.0000
  H   H5        1.0  0.34100  0.88300  0.20900  1.0000
  H   H6        1.0  0.56700  0.07690  0.23300  1.0000
  H   H7        1.0  0.56700  0.42300  0.23300  1.0000
  H   H8        1.0  0.16000  0.07320  0.24400  1.0000
  H   H9        1.0  0.16000  0.42700  0.24400  1.0000
  H   H10       1.0  0.96000  0.61900  0.24800  1.0000
  H   H11       1.0  0.96000  0.88100  0.24800  1.0000
  H   H12       1.0  0.46000  0.61900  0.25200  1.0000
  H   H13       1.0  0.46000  0.88100  0.25200  1.0000
  H   H14       1.0  0.66000  0.07320  0.25600  1.0000
  H   H15       1.0  0.66000  0.42700  0.25600  1.0000
  H   H16       1.0  0.06740  0.07690  0.26700  1.0000
  H   H17       1.0  0.06740  0.42300  0.26700  1.0000
  H   H18       1.0  0.84100  0.61700  0.29100  1.0000
  H   H19       1.0  0.84100  0.88300  0.29100  1.0000
  H   H20       1.0  0.60900  0.55500  0.46800  1.0000
  H   H21       1.0  0.60900  0.94500  0.46800  1.0000
  H   H22       1.0  0.50100  0.75000  0.49000  1.0000
  H   H23       1.0  0.49900  0.25000  0.51000  1.0000
  H   H24       1.0  0.39100  0.05490  0.53200  1.0000
  H   H25       1.0  0.39100  0.44500  0.53200  1.0000
  H   H26       1.0  0.15900  0.11700  0.70900  1.0000
  H   H27       1.0  0.15900  0.38300  0.70900  1.0000
  H   H28       1.0  0.93300  0.57700  0.73300  1.0000
  H   H29       1.0  0.93300  0.92300  0.73300  1.0000
  H   H30       1.0  0.34000  0.57300  0.74400  1.0000
  H   H31       1.0  0.34000  0.92700  0.74400  1.0000
  H   H32       1.0  0.54000  0.11900  0.74800  1.0000
  H   H33       1.0  0.54000  0.38100  0.74800  1.0000
  H   H34       1.0  0.03980  0.11900  0.75200  1.0000
  H   H35       1.0  0.03980  0.38100  0.75200  1.0000
  H   H36       1.0  0.84000  0.57300  0.75600  1.0000
  H   H37       1.0  0.84000  0.92700  0.75600  1.0000
  H   H38       1.0  0.43300  0.57700  0.76700  1.0000
  H   H39       1.0  0.43300  0.92300  0.76700  1.0000
  H   H40       1.0  0.65900  0.11700  0.79100  1.0000
  H   H41       1.0  0.65900  0.38300  0.79100  1.0000
  H   H42       1.0  0.89100  0.05490  0.96800  1.0000
  H   H43       1.0  0.89100  0.44500  0.96800  1.0000
  H   H44       1.0  0.99900  0.25000  0.99000  1.0000
  N   N1        1.0  0.89200  0.75000  0.00497  1.0000
  N   N2        1.0  0.39200  0.75000  0.49500  1.0000
  N   N3        1.0  0.60800  0.25000  0.50500  1.0000
  N   N4        1.0  0.10800  0.25000  0.99500  1.0000
