data_image0
_chemical_formula_structural       C4H24N4O28V12
_chemical_formula_sum              "C4 H24 N4 O28 V12"
_cell_length_a       11.5252
_cell_length_b       6.60565
_cell_length_c       15.05
_cell_angle_alpha    90
_cell_angle_beta     138.229
_cell_angle_gamma    90

_space_group_name_H-M_alt    "P 1"
_space_group_IT_number       1

loop_
  _space_group_symop_operation_xyz
  'x, y, z'

loop_
  _atom_site_type_symbol
  _atom_site_label
  _atom_site_symmetry_multiplicity
  _atom_site_fract_x
  _atom_site_fract_y
  _atom_site_fract_z
  _atom_site_occupancy
  C   C1        1.0  0.06100  0.17600  0.12600  1.0000
  C   C2        1.0  0.93900  0.67600  0.37400  1.0000
  C   C3        1.0  0.06100  0.32400  0.62600  1.0000
  C   C4        1.0  0.93900  0.82400  0.87400  1.0000
  H   H1        1.0  0.05290  0.21500  0.05130  1.0000
  H   H2        1.0  0.90800  0.41700  0.08330  1.0000
  H   H3        1.0  0.96100  0.06460  0.08680  1.0000
  H   H4        1.0  0.11700  0.47800  0.19100  1.0000
  H   H5        1.0  0.18900  0.11400  0.21600  1.0000
  H   H6        1.0  0.05100  0.33700  0.24200  1.0000
  H   H7        1.0  0.94900  0.83700  0.25800  1.0000
  H   H8        1.0  0.81100  0.61400  0.28400  1.0000
  H   H9        1.0  0.88300  0.97800  0.30900  1.0000
  H   H10       1.0  0.03870  0.56500  0.41300  1.0000
  H   H11       1.0  0.09220  0.91700  0.41700  1.0000
  H   H12       1.0  0.94700  0.71500  0.44900  1.0000
  H   H13       1.0  0.05290  0.28500  0.55100  1.0000
  H   H14       1.0  0.90800  0.08330  0.58300  1.0000
  H   H15       1.0  0.96100  0.43500  0.58700  1.0000
  H   H16       1.0  0.11700  0.02200  0.69100  1.0000
  H   H17       1.0  0.18900  0.38600  0.71600  1.0000
  H   H18       1.0  0.05100  0.16300  0.74200  1.0000
  H   H19       1.0  0.94900  0.66300  0.75800  1.0000
  H   H20       1.0  0.81100  0.88600  0.78400  1.0000
  H   H21       1.0  0.88300  0.52200  0.80900  1.0000
  H   H22       1.0  0.03870  0.93500  0.91300  1.0000
  H   H23       1.0  0.09220  0.58300  0.91700  1.0000
  H   H24       1.0  0.94700  0.78500  0.94900  1.0000
  N   N1        1.0  0.03300  0.36300  0.16300  1.0000
  N   N2        1.0  0.96700  0.86300  0.33700  1.0000
  N   N3        1.0  0.03300  0.13700  0.66300  1.0000
  N   N4        1.0  0.96700  0.63700  0.83700  1.0000
  O   O1        1.0  0.35300  0.55300  0.05550  1.0000
  O   O2        1.0  0.59900  0.70300  0.05990  1.0000
  O   O3        1.0  0.43800  0.98500  0.08760  1.0000
  O   O4        1.0  0.88700  0.77900  0.10800  1.0000
  O   O5        1.0  0.75300  0.21300  0.15000  1.0000
  O   O6        1.0  0.22100  0.60500  0.15200  1.0000
  O   O7        1.0  0.42000  0.25500  0.19300  1.0000
  O   O8        1.0  0.58000  0.75500  0.30700  1.0000
  O   O9        1.0  0.77900  0.10500  0.34800  1.0000
  O   O10       1.0  0.24700  0.71300  0.35000  1.0000
  O   O11       1.0  0.11300  0.27900  0.39200  1.0000
  O   O12       1.0  0.56200  0.48500  0.41200  1.0000
  O   O13       1.0  0.40100  0.20300  0.44000  1.0000
  O   O14       1.0  0.64700  0.05300  0.44500  1.0000
  O   O15       1.0  0.35300  0.94700  0.55500  1.0000
  O   O16       1.0  0.59900  0.79700  0.56000  1.0000
  O   O17       1.0  0.43800  0.51500  0.58800  1.0000
  O   O18       1.0  0.88700  0.72100  0.60800  1.0000
  O   O19       1.0  0.75300  0.28700  0.65000  1.0000
  O   O20       1.0  0.22100  0.89500  0.65200  1.0000
  O   O21       1.0  0.42000  0.24500  0.69300  1.0000
  O   O22       1.0  0.58000  0.74500  0.80700  1.0000
  O   O23       1.0  0.77900  0.39500  0.84800  1.0000
  O   O24       1.0  0.24700  0.78700  0.85000  1.0000
  O   O25       1.0  0.11300  0.22100  0.89200  1.0000
  O   O26       1.0  0.56200  0.01470  0.91200  1.0000
  O   O27       1.0  0.40100  0.29700  0.94000  1.0000
  O   O28       1.0  0.64700  0.44700  0.94500  1.0000
  V   V1        1.0  0.40900  0.75400  0.00976  1.0000
  V   V2        1.0  0.32600  0.25700  0.01780  1.0000
  V   V3        1.0  0.41000  0.53800  0.21900  1.0000
  V   V4        1.0  0.59000  0.03800  0.28100  1.0000
  V   V5        1.0  0.67400  0.75700  0.48200  1.0000
  V   V6        1.0  0.59100  0.25400  0.49000  1.0000
  V   V7        1.0  0.40900  0.74600  0.51000  1.0000
  V   V8        1.0  0.32600  0.24300  0.51800  1.0000
  V   V9        1.0  0.41000  0.96200  0.71900  1.0000
  V   V10       1.0  0.59000  0.46200  0.78100  1.0000
  V   V11       1.0  0.67400  0.74300  0.98200  1.0000
  V   V12       1.0  0.59100  0.24600  0.99000  1.0000
