data_image0
_chemical_formula_structural       O2Pb2Pt2Te2
_chemical_formula_sum              "O2 Pb2 Pt2 Te2"
_cell_length_a       4.67545
_cell_length_b       4.67545
_cell_length_c       8.57433
_cell_angle_alpha    90
_cell_angle_beta     90
_cell_angle_gamma    90

_space_group_name_H-M_alt    "P 1"
_space_group_IT_number       1

loop_
  _space_group_symop_operation_xyz
  'x, y, z'

loop_
  _atom_site_type_symbol
  _atom_site_label
  _atom_site_symmetry_multiplicity
  _atom_site_fract_x
  _atom_site_fract_y
  _atom_site_fract_z
  _atom_site_occupancy
  O   O1        1.0  0.25000  0.25000  0.09240  1.0000
  O   O2        1.0  0.75000  0.75000  0.90800  1.0000
  Pb  Pb1       1.0  0.75000  0.75000  0.15100  1.0000
  Pb  Pb2       1.0  0.25000  0.25000  0.84900  1.0000
  Pt  Pt1       1.0  0.25000  0.25000  0.34700  1.0000
  Pt  Pt2       1.0  0.75000  0.75000  0.65300  1.0000
  Te  Te1       1.0  0.75000  0.25000  0.50000  1.0000
  Te  Te2       1.0  0.25000  0.75000  0.50000  1.0000
