data_image0
_chemical_formula_structural       Ge2Li16O12
_chemical_formula_sum              "Ge2 Li16 O12"
_cell_length_a       5.47803
_cell_length_b       5.47803
_cell_length_c       10.6852
_cell_angle_alpha    90
_cell_angle_beta     90
_cell_angle_gamma    120

_space_group_name_H-M_alt    "P 1"
_space_group_IT_number       1

loop_
  _space_group_symop_operation_xyz
  'x, y, z'

loop_
  _atom_site_type_symbol
  _atom_site_label
  _atom_site_symmetry_multiplicity
  _atom_site_fract_x
  _atom_site_fract_y
  _atom_site_fract_z
  _atom_site_occupancy
  Ge  Ge1       1.0  0.00000  0.00000  0.99900  1.0000
  Ge  Ge2       1.0  0.00001  0.00001  0.49900  1.0000
  Li  Li1       1.0  0.60200  0.00002  0.13000  1.0000
  Li  Li2       1.0  0.00001  0.60200  0.13000  1.0000
  Li  Li3       1.0  0.39800  0.39800  0.13000  1.0000
  Li  Li4       1.0  0.68900  0.68900  0.27000  1.0000
  Li  Li5       1.0  0.31100  0.00001  0.27000  1.0000
  Li  Li6       1.0  0.00001  0.31100  0.27000  1.0000
  Li  Li7       1.0  0.66700  0.33300  0.41000  1.0000
  Li  Li8       1.0  0.33300  0.66700  0.41000  1.0000
  Li  Li9       1.0  0.39800  0.00000  0.63000  1.0000
  Li  Li10      1.0  0.00000  0.39800  0.63000  1.0000
  Li  Li11      1.0  0.60200  0.60200  0.63000  1.0000
  Li  Li12      1.0  0.31100  0.31100  0.77000  1.0000
  Li  Li13      1.0  0.68900  0.00000  0.77000  1.0000
  Li  Li14      1.0  0.00000  0.68900  0.77000  1.0000
  Li  Li15      1.0  0.66700  0.33300  0.91000  1.0000
  Li  Li16      1.0  0.33300  0.66700  0.91000  1.0000
  O   O1        1.0  0.00001  0.00001  0.16900  1.0000
  O   O2        1.0  0.66700  0.33300  0.21900  1.0000
  O   O3        1.0  0.33300  0.66700  0.21900  1.0000
  O   O4        1.0  0.69200  0.69200  0.45300  1.0000
  O   O5        1.0  0.30800  0.00001  0.45300  1.0000
  O   O6        1.0  0.00001  0.30800  0.45300  1.0000
  O   O7        1.0  0.00000  0.00000  0.66900  1.0000
  O   O8        1.0  0.66700  0.33300  0.71900  1.0000
  O   O9        1.0  0.33300  0.66700  0.71900  1.0000
  O   O10       1.0  0.30800  0.30800  0.95300  1.0000
  O   O11       1.0  0.69200  0.00000  0.95300  1.0000
  O   O12       1.0  0.00000  0.69200  0.95300  1.0000
