data_image0
_chemical_formula_structural       Li8NbO6
_chemical_formula_sum              "Li8 Nb1 O6"
_cell_length_a       6.00181
_cell_length_b       6.00181
_cell_length_c       6.00181
_cell_angle_alpha    53.7484
_cell_angle_beta     53.7484
_cell_angle_gamma    53.7484

_space_group_name_H-M_alt    "P 1"
_space_group_IT_number       1

loop_
  _space_group_symop_operation_xyz
  'x, y, z'

loop_
  _atom_site_type_symbol
  _atom_site_label
  _atom_site_symmetry_multiplicity
  _atom_site_fract_x
  _atom_site_fract_y
  _atom_site_fract_z
  _atom_site_occupancy
  Li  Li1       1.0  0.76600  0.49000  0.10600  1.0000
  Li  Li2       1.0  0.51000  0.89400  0.23400  1.0000
  Li  Li3       1.0  0.34000  0.34000  0.34000  1.0000
  Li  Li4       1.0  0.10600  0.76600  0.49000  1.0000
  Li  Li5       1.0  0.89400  0.23400  0.51000  1.0000
  Li  Li6       1.0  0.66000  0.66000  0.66000  1.0000
  Li  Li7       1.0  0.49000  0.10600  0.76600  1.0000
  Li  Li8       1.0  0.23400  0.51000  0.89400  1.0000
  Nb  Nb1       1.0  0.00000  0.00000  0.00000  1.0000
  O   O1        1.0  0.38900  0.76500  0.08900  1.0000
  O   O2        1.0  0.91100  0.61100  0.23500  1.0000
  O   O3        1.0  0.76500  0.08900  0.38900  1.0000
  O   O4        1.0  0.23500  0.91100  0.61100  1.0000
  O   O5        1.0  0.08900  0.38900  0.76500  1.0000
  O   O6        1.0  0.61100  0.23500  0.91100  1.0000
