data_image0
_chemical_formula_structural       AcLi8O6
_chemical_formula_sum              "Ac1 Li8 O6"
_cell_length_a       6.55655
_cell_length_b       6.55655
_cell_length_c       6.55655
_cell_angle_alpha    51.573
_cell_angle_beta     51.573
_cell_angle_gamma    51.573

_space_group_name_H-M_alt    "P 1"
_space_group_IT_number       1

loop_
  _space_group_symop_operation_xyz
  'x, y, z'

loop_
  _atom_site_type_symbol
  _atom_site_label
  _atom_site_symmetry_multiplicity
  _atom_site_fract_x
  _atom_site_fract_y
  _atom_site_fract_z
  _atom_site_occupancy
  Ac  Ac1       1.0  0.00000  0.00000  0.00000  1.0000
  Li  Li1       1.0  0.78100  0.50400  0.09280  1.0000
  Li  Li2       1.0  0.49600  0.90700  0.21900  1.0000
  Li  Li3       1.0  0.37900  0.37900  0.37900  1.0000
  Li  Li4       1.0  0.90700  0.21900  0.49600  1.0000
  Li  Li5       1.0  0.09280  0.78100  0.50400  1.0000
  Li  Li6       1.0  0.62100  0.62100  0.62100  1.0000
  Li  Li7       1.0  0.50400  0.09280  0.78100  1.0000
  Li  Li8       1.0  0.21900  0.49600  0.90700  1.0000
  O   O1        1.0  0.40300  0.75600  0.11700  1.0000
  O   O2        1.0  0.88300  0.59700  0.24400  1.0000
  O   O3        1.0  0.75600  0.11700  0.40300  1.0000
  O   O4        1.0  0.24400  0.88300  0.59700  1.0000
  O   O5        1.0  0.11700  0.40300  0.75600  1.0000
  O   O6        1.0  0.59700  0.24400  0.88300  1.0000
