data_image0
_chemical_formula_structural       Li8O6Th
_chemical_formula_sum              "Li8 O6 Th1"
_cell_length_a       6.36261
_cell_length_b       6.36261
_cell_length_c       6.36261
_cell_angle_alpha    52.8011
_cell_angle_beta     52.8011
_cell_angle_gamma    52.8012

_space_group_name_H-M_alt    "P 1"
_space_group_IT_number       1

loop_
  _space_group_symop_operation_xyz
  'x, y, z'

loop_
  _atom_site_type_symbol
  _atom_site_label
  _atom_site_symmetry_multiplicity
  _atom_site_fract_x
  _atom_site_fract_y
  _atom_site_fract_z
  _atom_site_occupancy
  Li  Li1       1.0  0.77200  0.50400  0.10200  1.0000
  Li  Li2       1.0  0.49600  0.89800  0.22800  1.0000
  Li  Li3       1.0  0.36200  0.36200  0.36200  1.0000
  Li  Li4       1.0  0.89800  0.22800  0.49600  1.0000
  Li  Li5       1.0  0.10200  0.77200  0.50400  1.0000
  Li  Li6       1.0  0.63800  0.63800  0.63800  1.0000
  Li  Li7       1.0  0.50400  0.10200  0.77200  1.0000
  Li  Li8       1.0  0.22800  0.49600  0.89800  1.0000
  O   O1        1.0  0.40300  0.75500  0.10500  1.0000
  O   O2        1.0  0.89500  0.59700  0.24500  1.0000
  O   O3        1.0  0.75500  0.10500  0.40300  1.0000
  O   O4        1.0  0.24500  0.89500  0.59700  1.0000
  O   O5        1.0  0.10500  0.40300  0.75500  1.0000
  O   O6        1.0  0.59700  0.24500  0.89500  1.0000
  Th  Th1       1.0  0.00000  0.00000  0.00000  1.0000
