data_image0
_chemical_formula_structural       Mn2O2Pb2Te2
_chemical_formula_sum              "Mn2 O2 Pb2 Te2"
_cell_length_a       3.39921
_cell_length_b       3.39907
_cell_length_c       17.2974
_cell_angle_alpha    90
_cell_angle_beta     90
_cell_angle_gamma    120.001

_space_group_name_H-M_alt    "P 1"
_space_group_IT_number       1

loop_
  _space_group_symop_operation_xyz
  'x, y, z'

loop_
  _atom_site_type_symbol
  _atom_site_label
  _atom_site_symmetry_multiplicity
  _atom_site_fract_x
  _atom_site_fract_y
  _atom_site_fract_z
  _atom_site_occupancy
  Mn  Mn1       1.0  0.33300  0.66700  0.27600  1.0000
  Mn  Mn2       1.0  0.66700  0.33300  0.77600  1.0000
  O   O1        1.0  0.00000  0.00000  0.31900  1.0000
  O   O2        1.0  0.00000  0.00000  0.81900  1.0000
  Pb  Pb1       1.0  0.00000  0.00000  0.45400  1.0000
  Pb  Pb2       1.0  0.00000  0.00000  0.95400  1.0000
  Te  Te1       1.0  0.66700  0.33300  0.13900  1.0000
  Te  Te2       1.0  0.33300  0.66700  0.63900  1.0000
