data_image0
_chemical_formula_structural       Te4TiZr
_chemical_formula_sum              "Te4 Ti1 Zr1"
_cell_length_a       6.8609
_cell_length_b       3.85906
_cell_length_c       6.6926
_cell_angle_alpha    90
_cell_angle_beta     90.0559
_cell_angle_gamma    90

_space_group_name_H-M_alt    "P 1"
_space_group_IT_number       1

loop_
  _space_group_symop_operation_xyz
  'x, y, z'

loop_
  _atom_site_type_symbol
  _atom_site_label
  _atom_site_symmetry_multiplicity
  _atom_site_fract_x
  _atom_site_fract_y
  _atom_site_fract_z
  _atom_site_occupancy
  Te  Te1       1.0  0.25400  0.50000  0.15500  1.0000
  Te  Te2       1.0  0.73700  0.00000  0.32200  1.0000
  Te  Te3       1.0  0.26300  0.00000  0.67800  1.0000
  Te  Te4       1.0  0.74600  0.50000  0.84500  1.0000
  Ti  Ti1       1.0  0.00000  0.00000  0.00000  1.0000
  Zr  Zr1       1.0  0.00000  0.50000  0.50000  1.0000
