data_image0
_chemical_formula_structural       Be2Ge2O2Te2
_chemical_formula_sum              "Be2 Ge2 O2 Te2"
_cell_length_a       3.75203
_cell_length_b       3.75203
_cell_length_c       9.10093
_cell_angle_alpha    90
_cell_angle_beta     90
_cell_angle_gamma    90

_space_group_name_H-M_alt    "P 1"
_space_group_IT_number       1

loop_
  _space_group_symop_operation_xyz
  'x, y, z'

loop_
  _atom_site_type_symbol
  _atom_site_label
  _atom_site_symmetry_multiplicity
  _atom_site_fract_x
  _atom_site_fract_y
  _atom_site_fract_z
  _atom_site_occupancy
  Be  Be1       1.0  0.75000  0.75000  0.13300  1.0000
  Be  Be2       1.0  0.25000  0.25000  0.86700  1.0000
  Ge  Ge1       1.0  0.75000  0.75000  0.39600  1.0000
  Ge  Ge2       1.0  0.25000  0.25000  0.60400  1.0000
  O   O1        1.0  0.75000  0.25000  0.50000  1.0000
  O   O2        1.0  0.25000  0.75000  0.50000  1.0000
  Te  Te1       1.0  0.25000  0.25000  0.14500  1.0000
  Te  Te2       1.0  0.75000  0.75000  0.85500  1.0000
