data_image0
_chemical_formula_structural       Cd2N2O2Si2
_chemical_formula_sum              "Cd2 N2 O2 Si2"
_cell_length_a       4.03402
_cell_length_b       4.03402
_cell_length_c       6.5231
_cell_angle_alpha    90
_cell_angle_beta     90
_cell_angle_gamma    90

_space_group_name_H-M_alt    "P 1"
_space_group_IT_number       1

loop_
  _space_group_symop_operation_xyz
  'x, y, z'

loop_
  _atom_site_type_symbol
  _atom_site_label
  _atom_site_symmetry_multiplicity
  _atom_site_fract_x
  _atom_site_fract_y
  _atom_site_fract_z
  _atom_site_occupancy
  Cd  Cd1       1.0  0.75000  0.25000  0.50000  1.0000
  Cd  Cd2       1.0  0.25000  0.75000  0.50000  1.0000
  N   N1        1.0  0.75000  0.75000  0.33600  1.0000
  N   N2        1.0  0.25000  0.25000  0.66400  1.0000
  O   O1        1.0  0.75000  0.25000  0.00000  1.0000
  O   O2        1.0  0.25000  0.75000  0.00000  1.0000
  Si  Si1       1.0  0.75000  0.75000  0.07380  1.0000
  Si  Si2       1.0  0.25000  0.25000  0.92600  1.0000
