data_image0
_chemical_formula_structural       Al2B2N2O2
_chemical_formula_sum              "Al2 B2 N2 O2"
_cell_length_a       3.43755
_cell_length_b       3.43755
_cell_length_c       5.63474
_cell_angle_alpha    90
_cell_angle_beta     90
_cell_angle_gamma    90

_space_group_name_H-M_alt    "P 1"
_space_group_IT_number       1

loop_
  _space_group_symop_operation_xyz
  'x, y, z'

loop_
  _atom_site_type_symbol
  _atom_site_label
  _atom_site_symmetry_multiplicity
  _atom_site_fract_x
  _atom_site_fract_y
  _atom_site_fract_z
  _atom_site_occupancy
  Al  Al1       1.0  0.25000  0.25000  0.14500  1.0000
  Al  Al2       1.0  0.75000  0.75000  0.85500  1.0000
  B   B1        1.0  0.75000  0.25000  0.50000  1.0000
  B   B2        1.0  0.25000  0.75000  0.50000  1.0000
  N   N1        1.0  0.25000  0.25000  0.48800  1.0000
  N   N2        1.0  0.75000  0.75000  0.51200  1.0000
  O   O1        1.0  0.75000  0.25000  0.00000  1.0000
  O   O2        1.0  0.25000  0.75000  0.00000  1.0000
