data_image0
_chemical_formula_structural       Li2N2O2V2
_chemical_formula_sum              "Li2 N2 O2 V2"
_cell_length_a       3.13045
_cell_length_b       3.13045
_cell_length_c       7.09753
_cell_angle_alpha    90
_cell_angle_beta     90
_cell_angle_gamma    90

_space_group_name_H-M_alt    "P 1"
_space_group_IT_number       1

loop_
  _space_group_symop_operation_xyz
  'x, y, z'

loop_
  _atom_site_type_symbol
  _atom_site_label
  _atom_site_symmetry_multiplicity
  _atom_site_fract_x
  _atom_site_fract_y
  _atom_site_fract_z
  _atom_site_occupancy
  Li  Li1       1.0  0.75000  0.25000  0.50000  1.0000
  Li  Li2       1.0  0.25000  0.75000  0.50000  1.0000
  N   N1        1.0  0.75000  0.75000  0.31700  1.0000
  N   N2        1.0  0.25000  0.25000  0.68300  1.0000
  O   O1        1.0  0.75000  0.25000  0.00000  1.0000
  O   O2        1.0  0.25000  0.75000  0.00000  1.0000
  V   V1        1.0  0.25000  0.25000  0.16800  1.0000
  V   V2        1.0  0.75000  0.75000  0.83200  1.0000
