data_image0
_chemical_formula_structural       Er2N2O2Pa2
_chemical_formula_sum              "Er2 N2 O2 Pa2"
_cell_length_a       3.92967
_cell_length_b       3.92967
_cell_length_c       8.3877
_cell_angle_alpha    90
_cell_angle_beta     90
_cell_angle_gamma    90

_space_group_name_H-M_alt    "P 1"
_space_group_IT_number       1

loop_
  _space_group_symop_operation_xyz
  'x, y, z'

loop_
  _atom_site_type_symbol
  _atom_site_label
  _atom_site_symmetry_multiplicity
  _atom_site_fract_x
  _atom_site_fract_y
  _atom_site_fract_z
  _atom_site_occupancy
  Er  Er1       1.0  0.75000  0.25000  0.50000  1.0000
  Er  Er2       1.0  0.25000  0.75000  0.50000  1.0000
  N   N1        1.0  0.75000  0.75000  0.32000  1.0000
  N   N2        1.0  0.25000  0.25000  0.68000  1.0000
  O   O1        1.0  0.75000  0.25000  0.00000  1.0000
  O   O2        1.0  0.25000  0.75000  0.00000  1.0000
  Pa  Pa1       1.0  0.25000  0.25000  0.15700  1.0000
  Pa  Pa2       1.0  0.75000  0.75000  0.84300  1.0000
