data_image0
_chemical_formula_structural       Au2Ge2Y2
_chemical_formula_sum              "Au2 Ge2 Y2"
_cell_length_a       4.47268
_cell_length_b       4.4726
_cell_length_c       7.367
_cell_angle_alpha    90
_cell_angle_beta     90
_cell_angle_gamma    120.001

_space_group_name_H-M_alt    "P 1"
_space_group_IT_number       1

loop_
  _space_group_symop_operation_xyz
  'x, y, z'

loop_
  _atom_site_type_symbol
  _atom_site_label
  _atom_site_symmetry_multiplicity
  _atom_site_fract_x
  _atom_site_fract_y
  _atom_site_fract_z
  _atom_site_occupancy
  Au  Au1       1.0  0.33300  0.66700  0.03410  1.0000
  Au  Au2       1.0  0.66700  0.33300  0.53400  1.0000
  Ge  Ge1       1.0  0.33300  0.66700  0.45900  1.0000
  Ge  Ge2       1.0  0.66700  0.33300  0.95900  1.0000
  Y   Y1        1.0  0.00000  0.00000  0.25000  1.0000
  Y   Y2        1.0  0.00000  0.00001  0.75000  1.0000
