data_image0
_chemical_formula_structural       Au3In3Y3
_chemical_formula_sum              "Au3 In3 Y3"
_cell_length_a       7.79648
_cell_length_b       7.79649
_cell_length_c       3.95972
_cell_angle_alpha    90
_cell_angle_beta     90
_cell_angle_gamma    120.001

_space_group_name_H-M_alt    "P 1"
_space_group_IT_number       1

loop_
  _space_group_symop_operation_xyz
  'x, y, z'

loop_
  _atom_site_type_symbol
  _atom_site_label
  _atom_site_symmetry_multiplicity
  _atom_site_fract_x
  _atom_site_fract_y
  _atom_site_fract_z
  _atom_site_occupancy
  Au  Au1       1.0  0.66700  0.33300  0.00000  1.0000
  Au  Au2       1.0  0.33300  0.66700  0.00000  1.0000
  Au  Au3       1.0  0.00001  0.00001  0.50000  1.0000
  In  In1       1.0  0.26200  0.00001  0.00000  1.0000
  In  In2       1.0  0.00001  0.26200  0.00000  1.0000
  In  In3       1.0  0.73800  0.73800  0.00000  1.0000
  Y   Y1        1.0  0.59700  0.00002  0.50000  1.0000
  Y   Y2        1.0  0.40300  0.40300  0.50000  1.0000
  Y   Y3        1.0  0.00002  0.59700  0.50000  1.0000
