data_image0
_chemical_formula_structural       Cl2La2
_chemical_formula_sum              "Cl2 La2"
_cell_length_a       4.07982
_cell_length_b       4.07982
_cell_length_c       9.81634
_cell_angle_alpha    101.994
_cell_angle_beta     78.0061
_cell_angle_gamma    120

_space_group_name_H-M_alt    "P 1"
_space_group_IT_number       1

loop_
  _space_group_symop_operation_xyz
  'x, y, z'

loop_
  _atom_site_type_symbol
  _atom_site_label
  _atom_site_symmetry_multiplicity
  _atom_site_fract_x
  _atom_site_fract_y
  _atom_site_fract_z
  _atom_site_occupancy
  Cl  Cl1       1.0  0.61200  0.38800  0.16400  1.0000
  Cl  Cl2       1.0  0.38800  0.61200  0.83600  1.0000
  La  La1       1.0  0.21900  0.78100  0.34400  1.0000
  La  La2       1.0  0.78100  0.21900  0.65600  1.0000
