data_image0
_chemical_formula_structural       Hg2Li6O7
_chemical_formula_sum              "Hg2 Li6 O7"
_cell_length_a       5.46051
_cell_length_b       6.00695
_cell_length_c       5.29402
_cell_angle_alpha    88.4626
_cell_angle_beta     100.539
_cell_angle_gamma    109.756

_space_group_name_H-M_alt    "P 1"
_space_group_IT_number       1

loop_
  _space_group_symop_operation_xyz
  'x, y, z'

loop_
  _atom_site_type_symbol
  _atom_site_label
  _atom_site_symmetry_multiplicity
  _atom_site_fract_x
  _atom_site_fract_y
  _atom_site_fract_z
  _atom_site_occupancy
  Hg  Hg1       1.0  0.50200  0.87800  0.24700  1.0000
  Hg  Hg2       1.0  0.99800  0.74700  0.50300  1.0000
  Li  Li1       1.0  0.97200  0.97900  0.00689  1.0000
  Li  Li2       1.0  0.52700  0.37200  0.29400  1.0000
  Li  Li3       1.0  0.97300  0.25300  0.45600  1.0000
  Li  Li4       1.0  0.52800  0.64600  0.74300  1.0000
  Li  Li5       1.0  0.53500  0.11900  0.75100  1.0000
  Li  Li6       1.0  0.96500  0.50600  0.99900  1.0000
  O   O1        1.0  0.73100  0.66200  0.11200  1.0000
  O   O2        1.0  0.72700  0.19300  0.11300  1.0000
  O   O3        1.0  0.27000  0.55100  0.37400  1.0000
  O   O4        1.0  0.23100  0.07340  0.37600  1.0000
  O   O5        1.0  0.77300  0.43300  0.63700  1.0000
  O   O6        1.0  0.76900  0.96300  0.63800  1.0000
  O   O7        1.0  0.25000  0.81200  0.87500  1.0000
