data_image0
_chemical_formula_structural       O4Sr2Ti
_chemical_formula_sum              "O4 Sr2 Ti1"
_cell_length_a       3.89318
_cell_length_b       3.89318
_cell_length_c       6.85186
_cell_angle_alpha    106.505
_cell_angle_beta     106.505
_cell_angle_gamma    90

_space_group_name_H-M_alt    "P 1"
_space_group_IT_number       1

loop_
  _space_group_symop_operation_xyz
  'x, y, z'

loop_
  _atom_site_type_symbol
  _atom_site_label
  _atom_site_symmetry_multiplicity
  _atom_site_fract_x
  _atom_site_fract_y
  _atom_site_fract_z
  _atom_site_occupancy
  O   O1        1.0  0.50000  0.00000  0.00000  1.0000
  O   O2        1.0  0.00000  0.50000  0.00000  1.0000
  O   O3        1.0  0.16000  0.16000  0.31900  1.0000
  O   O4        1.0  0.84000  0.84000  0.68100  1.0000
  Sr  Sr1       1.0  0.64500  0.64500  0.29100  1.0000
  Sr  Sr2       1.0  0.35500  0.35500  0.70900  1.0000
  Ti  Ti1       1.0  0.00000  0.00000  0.00000  1.0000
