data_image0
_chemical_formula_structural       Bi2Cu2Sr2
_chemical_formula_sum              "Bi2 Cu2 Sr2"
_cell_length_a       4.65717
_cell_length_b       4.65705
_cell_length_c       8.8727
_cell_angle_alpha    90
_cell_angle_beta     90
_cell_angle_gamma    120.001

_space_group_name_H-M_alt    "P 1"
_space_group_IT_number       1

loop_
  _space_group_symop_operation_xyz
  'x, y, z'

loop_
  _atom_site_type_symbol
  _atom_site_label
  _atom_site_symmetry_multiplicity
  _atom_site_fract_x
  _atom_site_fract_y
  _atom_site_fract_z
  _atom_site_occupancy
  Bi  Bi1       1.0  0.33300  0.66700  0.25000  1.0000
  Bi  Bi2       1.0  0.66700  0.33300  0.75000  1.0000
  Cu  Cu1       1.0  0.66700  0.33300  0.25000  1.0000
  Cu  Cu2       1.0  0.33300  0.66700  0.75000  1.0000
  Sr  Sr1       1.0  0.00000  0.00000  0.00000  1.0000
  Sr  Sr2       1.0  0.00000  0.00000  0.50000  1.0000
