data_image0
_chemical_formula_structural       As3Na3Sr3
_chemical_formula_sum              "As3 Na3 Sr3"
_cell_length_a       7.82896
_cell_length_b       7.82896
_cell_length_c       4.58054
_cell_angle_alpha    90
_cell_angle_beta     90
_cell_angle_gamma    120

_space_group_name_H-M_alt    "P 1"
_space_group_IT_number       1

loop_
  _space_group_symop_operation_xyz
  'x, y, z'

loop_
  _atom_site_type_symbol
  _atom_site_label
  _atom_site_symmetry_multiplicity
  _atom_site_fract_x
  _atom_site_fract_y
  _atom_site_fract_z
  _atom_site_occupancy
  As  As1       1.0  0.66700  0.33300  0.00000  1.0000
  As  As2       1.0  0.33300  0.66700  0.00000  1.0000
  As  As3       1.0  0.00000  0.00000  0.50000  1.0000
  Na  Na1       1.0  0.24100  0.00000  0.00000  1.0000
  Na  Na2       1.0  0.00000  0.24100  0.00000  1.0000
  Na  Na3       1.0  0.75900  0.75900  0.00000  1.0000
  Sr  Sr1       1.0  0.58400  0.00000  0.50000  1.0000
  Sr  Sr2       1.0  0.41600  0.41600  0.50000  1.0000
  Sr  Sr3       1.0  0.00000  0.58400  0.50000  1.0000
