data_image0
_chemical_formula_structural       NbS4Tl3
_chemical_formula_sum              "Nb1 S4 Tl3"
_cell_length_a       6.72754
_cell_length_b       6.72754
_cell_length_c       6.72754
_cell_angle_alpha    109.471
_cell_angle_beta     109.471
_cell_angle_gamma    109.471

_space_group_name_H-M_alt    "P 1"
_space_group_IT_number       1

loop_
  _space_group_symop_operation_xyz
  'x, y, z'

loop_
  _atom_site_type_symbol
  _atom_site_label
  _atom_site_symmetry_multiplicity
  _atom_site_fract_x
  _atom_site_fract_y
  _atom_site_fract_z
  _atom_site_occupancy
  Nb  Nb1       1.0  0.00000  0.00000  0.00000  1.0000
  S   S1        1.0  0.34100  0.00000  0.00000  1.0000
  S   S2        1.0  0.00000  0.34100  0.00000  1.0000
  S   S3        1.0  0.00000  0.00000  0.34100  1.0000
  S   S4        1.0  0.65900  0.65900  0.65900  1.0000
  Tl  Tl1       1.0  0.50000  0.50000  0.00000  1.0000
  Tl  Tl2       1.0  0.50000  0.00000  0.50000  1.0000
  Tl  Tl3       1.0  0.00000  0.50000  0.50000  1.0000
