data_image0
_chemical_formula_structural       CdCr3Te4
_chemical_formula_sum              "Cd1 Cr3 Te4"
_cell_length_a       6.31929
_cell_length_b       6.31929
_cell_length_c       6.31929
_cell_angle_alpha    90
_cell_angle_beta     90
_cell_angle_gamma    90

_space_group_name_H-M_alt    "P 1"
_space_group_IT_number       1

loop_
  _space_group_symop_operation_xyz
  'x, y, z'

loop_
  _atom_site_type_symbol
  _atom_site_label
  _atom_site_symmetry_multiplicity
  _atom_site_fract_x
  _atom_site_fract_y
  _atom_site_fract_z
  _atom_site_occupancy
  Cd  Cd1       1.0  0.00000  0.00000  0.00000  1.0000
  Cr  Cr1       1.0  0.50000  0.50000  0.00000  1.0000
  Cr  Cr2       1.0  0.50000  0.00000  0.50000  1.0000
  Cr  Cr3       1.0  0.00000  0.50000  0.50000  1.0000
  Te  Te1       1.0  0.26200  0.26200  0.26200  1.0000
  Te  Te2       1.0  0.73800  0.73800  0.26200  1.0000
  Te  Te3       1.0  0.73800  0.26200  0.73800  1.0000
  Te  Te4       1.0  0.26200  0.73800  0.73800  1.0000
