data_image0
_chemical_formula_structural       In2Mg2N2O2
_chemical_formula_sum              "In2 Mg2 N2 O2"
_cell_length_a       3.46734
_cell_length_b       5.47447
_cell_length_c       5.89955
_cell_angle_alpha    90
_cell_angle_beta     90
_cell_angle_gamma    90

_space_group_name_H-M_alt    "P 1"
_space_group_IT_number       1

loop_
  _space_group_symop_operation_xyz
  'x, y, z'

loop_
  _atom_site_type_symbol
  _atom_site_label
  _atom_site_symmetry_multiplicity
  _atom_site_fract_x
  _atom_site_fract_y
  _atom_site_fract_z
  _atom_site_occupancy
  In  In1       1.0  0.00000  0.50200  0.34100  1.0000
  In  In2       1.0  0.00000  0.00210  0.65900  1.0000
  Mg  Mg1       1.0  0.50000  0.99800  0.16400  1.0000
  Mg  Mg2       1.0  0.50000  0.49800  0.83600  1.0000
  N   N1        1.0  0.00000  0.88700  0.31700  1.0000
  N   N2        1.0  0.00000  0.38700  0.68300  1.0000
  O   O1        1.0  0.50000  0.36700  0.15400  1.0000
  O   O2        1.0  0.50000  0.86700  0.84600  1.0000
