data_image0
_chemical_formula_structural       C14H42Mn2N2S6
_chemical_formula_sum              "C14 H42 Mn2 N2 S6"
_cell_length_a       9.49101
_cell_length_b       9.68103
_cell_length_c       9.75287
_cell_angle_alpha    118.059
_cell_angle_beta     107.314
_cell_angle_gamma    101.649

_space_group_name_H-M_alt    "P 1"
_space_group_IT_number       1

loop_
  _space_group_symop_operation_xyz
  'x, y, z'

loop_
  _atom_site_type_symbol
  _atom_site_label
  _atom_site_symmetry_multiplicity
  _atom_site_fract_x
  _atom_site_fract_y
  _atom_site_fract_z
  _atom_site_occupancy
  C   C1        1.0  0.20300  0.04930  0.17300  1.0000
  C   C2        1.0  0.25900  0.47800  0.19600  1.0000
  C   C3        1.0  0.68000  0.04150  0.20000  1.0000
  C   C4        1.0  0.75000  0.82100  0.22300  1.0000
  C   C5        1.0  0.84500  0.44100  0.23500  1.0000
  C   C6        1.0  0.54800  0.90100  0.30800  1.0000
  C   C7        1.0  0.83200  0.10100  0.48700  1.0000
  C   C8        1.0  0.16800  0.89900  0.51300  1.0000
  C   C9        1.0  0.45200  0.09870  0.69200  1.0000
  C   C10       1.0  0.15500  0.55900  0.76500  1.0000
  C   C11       1.0  0.25000  0.17900  0.77700  1.0000
  C   C12       1.0  0.32000  0.95800  0.80000  1.0000
  C   C13       1.0  0.74100  0.52200  0.80400  1.0000
  C   C14       1.0  0.79700  0.95100  0.82700  1.0000
  H   H1        1.0  0.10600  0.92200  0.06640  1.0000
  H   H2        1.0  0.58400  0.93900  0.06750  1.0000
  H   H3        1.0  0.65200  0.72300  0.09100  1.0000
  H   H4        1.0  0.85200  0.37000  0.11300  1.0000
  H   H5        1.0  0.23700  0.11700  0.11600  1.0000
  H   H6        1.0  0.28900  0.36900  0.13100  1.0000
  H   H7        1.0  0.27200  0.55300  0.14100  1.0000
  H   H8        1.0  0.45500  0.80400  0.17300  1.0000
  H   H9        1.0  0.13400  0.43000  0.17400  1.0000
  H   H10       1.0  0.79500  0.08700  0.19900  1.0000
  H   H11       1.0  0.86300  0.87200  0.22100  1.0000
  H   H12       1.0  0.30900  0.03410  0.23800  1.0000
  H   H13       1.0  0.64600  0.14800  0.26100  1.0000
  H   H14       1.0  0.76500  0.76700  0.30000  1.0000
  H   H15       1.0  0.92000  0.57700  0.30500  1.0000
  H   H16       1.0  0.89400  0.39600  0.31600  1.0000
  H   H17       1.0  0.51600  0.01040  0.37000  1.0000
  H   H18       1.0  0.56500  0.84500  0.38400  1.0000
  H   H19       1.0  0.15400  0.95800  0.44000  1.0000
  H   H20       1.0  0.20600  0.79400  0.45600  1.0000
  H   H21       1.0  0.94300  0.14400  0.47900  1.0000
  H   H22       1.0  0.05680  0.85600  0.52100  1.0000
  H   H23       1.0  0.79400  0.20600  0.54400  1.0000
  H   H24       1.0  0.84600  0.04170  0.56000  1.0000
  H   H25       1.0  0.43500  0.15500  0.61600  1.0000
  H   H26       1.0  0.48400  0.99000  0.63000  1.0000
  H   H27       1.0  0.10600  0.60400  0.68400  1.0000
  H   H28       1.0  0.07960  0.42300  0.69500  1.0000
  H   H29       1.0  0.23500  0.23300  0.70000  1.0000
  H   H30       1.0  0.35400  0.85200  0.73900  1.0000
  H   H31       1.0  0.69100  0.96600  0.76200  1.0000
  H   H32       1.0  0.13700  0.12800  0.77900  1.0000
  H   H33       1.0  0.20500  0.91300  0.80100  1.0000
  H   H34       1.0  0.86600  0.57000  0.82600  1.0000
  H   H35       1.0  0.54500  0.19600  0.82700  1.0000
  H   H36       1.0  0.72800  0.44700  0.85900  1.0000
  H   H37       1.0  0.71100  0.63100  0.86900  1.0000
  H   H38       1.0  0.76300  0.88300  0.88400  1.0000
  H   H39       1.0  0.14800  0.63000  0.88700  1.0000
  H   H40       1.0  0.34800  0.27700  0.90900  1.0000
  H   H41       1.0  0.41600  0.06050  0.93300  1.0000
  H   H42       1.0  0.89400  0.07770  0.93400  1.0000
  Mn  Mn1       1.0  0.64500  0.57000  0.46100  1.0000
  Mn  Mn2       1.0  0.35500  0.43000  0.53900  1.0000
  N   N1        1.0  0.70200  0.96600  0.30500  1.0000
  N   N2        1.0  0.29800  0.03360  0.69500  1.0000
  S   S1        1.0  0.63500  0.40600  0.18700  1.0000
  S   S2        1.0  0.13100  0.16800  0.32700  1.0000
  S   S3        1.0  0.39400  0.61200  0.43000  1.0000
  S   S4        1.0  0.60600  0.38800  0.57000  1.0000
  S   S5        1.0  0.86900  0.83200  0.67300  1.0000
  S   S6        1.0  0.36500  0.59400  0.81300  1.0000
