data_image0
_chemical_formula_structural       C12H36N8O14S4
_chemical_formula_sum              "C12 H36 N8 O14 S4"
_cell_length_a       5.55945
_cell_length_b       10.2735
_cell_length_c       11.4094
_cell_angle_alpha    104.789
_cell_angle_beta     101.864
_cell_angle_gamma    98.9782

_space_group_name_H-M_alt    "P 1"
_space_group_IT_number       1

loop_
  _space_group_symop_operation_xyz
  'x, y, z'

loop_
  _atom_site_type_symbol
  _atom_site_label
  _atom_site_symmetry_multiplicity
  _atom_site_fract_x
  _atom_site_fract_y
  _atom_site_fract_z
  _atom_site_occupancy
  C   C1        1.0  0.86300  0.15500  0.00795  1.0000
  C   C2        1.0  0.82300  0.67600  0.02710  1.0000
  C   C3        1.0  0.30100  0.21100  0.13400  1.0000
  C   C4        1.0  0.26200  0.82600  0.35600  1.0000
  C   C5        1.0  0.18100  0.66200  0.47200  1.0000
  C   C6        1.0  0.39600  0.19400  0.47800  1.0000
  C   C7        1.0  0.60400  0.80600  0.52200  1.0000
  C   C8        1.0  0.81900  0.33800  0.52800  1.0000
  C   C9        1.0  0.73800  0.17400  0.64400  1.0000
  C   C10       1.0  0.69900  0.78900  0.86600  1.0000
  C   C11       1.0  0.17700  0.32400  0.97300  1.0000
  C   C12       1.0  0.13700  0.84500  0.99200  1.0000
  H   H1        1.0  0.35500  0.39900  0.01570  1.0000
  H   H2        1.0  0.28100  0.80200  0.04120  1.0000
  H   H3        1.0  0.35900  0.14100  0.06100  1.0000
  H   H4        1.0  0.08770  0.92500  0.06110  1.0000
  H   H5        1.0  0.97000  0.62900  0.06700  1.0000
  H   H6        1.0  0.79800  0.11400  0.07870  1.0000
  H   H7        1.0  0.80000  0.76300  0.09930  1.0000
  H   H8        1.0  0.46000  0.29700  0.18900  1.0000
  H   H9        1.0  0.22800  0.15600  0.19400  1.0000
  H   H10       1.0  0.09510  0.76600  0.28200  1.0000
  H   H11       1.0  0.40300  0.87700  0.31900  1.0000
  H   H12       1.0  0.00728  0.61400  0.39800  1.0000
  H   H13       1.0  0.45200  0.11800  0.40800  1.0000
  H   H14       1.0  0.20600  0.90200  0.42600  1.0000
  H   H15       1.0  0.32100  0.26900  0.43600  1.0000
  H   H16       1.0  0.85300  0.25700  0.45400  1.0000
  H   H17       1.0  0.74100  0.85700  0.48300  1.0000
  H   H18       1.0  0.74300  0.41500  0.48900  1.0000
  H   H19       1.0  0.25700  0.58500  0.51100  1.0000
  H   H20       1.0  0.25900  0.14300  0.51700  1.0000
  H   H21       1.0  0.14700  0.74300  0.54600  1.0000
  H   H22       1.0  0.67900  0.73100  0.56400  1.0000
  H   H23       1.0  0.79400  0.09830  0.57400  1.0000
  H   H24       1.0  0.54800  0.88200  0.59200  1.0000
  H   H25       1.0  0.99300  0.38600  0.60200  1.0000
  H   H26       1.0  0.59700  0.12300  0.68100  1.0000
  H   H27       1.0  0.90500  0.23400  0.71800  1.0000
  H   H28       1.0  0.77200  0.84400  0.80600  1.0000
  H   H29       1.0  0.54000  0.70300  0.81100  1.0000
  H   H30       1.0  0.20000  0.23700  0.90100  1.0000
  H   H31       1.0  0.20200  0.88600  0.92100  1.0000
  H   H32       1.0  0.03040  0.37100  0.93300  1.0000
  H   H33       1.0  0.91200  0.07540  0.93900  1.0000
  H   H34       1.0  0.64100  0.85900  0.93900  1.0000
  H   H35       1.0  0.71900  0.19800  0.95900  1.0000
  H   H36       1.0  0.64500  0.60100  0.98400  1.0000
  N   N1        1.0  0.09620  0.26500  0.06890  1.0000
  N   N2        1.0  0.21200  0.53500  0.19900  1.0000
  N   N3        1.0  0.80200  0.00654  0.26600  1.0000
  N   N4        1.0  0.37100  0.73100  0.42000  1.0000
  N   N5        1.0  0.62900  0.26900  0.58000  1.0000
  N   N6        1.0  0.19800  0.99300  0.73400  1.0000
  N   N7        1.0  0.78800  0.46500  0.80100  1.0000
  N   N8        1.0  0.90400  0.73500  0.93100  1.0000
  O   O1        1.0  0.77200  0.41400  0.11800  1.0000
  O   O2        1.0  0.59900  0.99600  0.18500  1.0000
  O   O3        1.0  0.00295  0.99500  0.23200  1.0000
  O   O4        1.0  0.63400  0.68500  0.25800  1.0000
  O   O5        1.0  0.02570  0.35000  0.29300  1.0000
  O   O6        1.0  0.56300  0.51300  0.37300  1.0000
  O   O7        1.0  0.80400  0.02830  0.38100  1.0000
  O   O8        1.0  0.19600  0.97200  0.61900  1.0000
  O   O9        1.0  0.43700  0.48700  0.62700  1.0000
  O   O10       1.0  0.97400  0.65000  0.70700  1.0000
  O   O11       1.0  0.36600  0.31500  0.74200  1.0000
  O   O12       1.0  0.99700  0.00495  0.76800  1.0000
  O   O13       1.0  0.40100  0.00417  0.81500  1.0000
  O   O14       1.0  0.22800  0.58600  0.88200  1.0000
  S   S1        1.0  0.01120  0.40200  0.18600  1.0000
  S   S2        1.0  0.46700  0.60100  0.30300  1.0000
  S   S3        1.0  0.53300  0.39900  0.69700  1.0000
  S   S4        1.0  0.98900  0.59800  0.81400  1.0000
