data_image0
_chemical_formula_structural       Au2Mg2O12Te4
_chemical_formula_sum              "Au2 Mg2 O12 Te4"
_cell_length_a       4.99963
_cell_length_b       4.99963
_cell_length_c       13.2397
_cell_angle_alpha    86.7482
_cell_angle_beta     86.7482
_cell_angle_gamma    68.8302

_space_group_name_H-M_alt    "P 1"
_space_group_IT_number       1

loop_
  _space_group_symop_operation_xyz
  'x, y, z'

loop_
  _atom_site_type_symbol
  _atom_site_label
  _atom_site_symmetry_multiplicity
  _atom_site_fract_x
  _atom_site_fract_y
  _atom_site_fract_z
  _atom_site_occupancy
  Au  Au1       1.0  0.00000  0.00000  0.00000  1.0000
  Au  Au2       1.0  0.00000  0.00000  0.50000  1.0000
  Mg  Mg1       1.0  0.00904  0.99100  0.25000  1.0000
  Mg  Mg2       1.0  0.99100  0.00904  0.75000  1.0000
  O   O1        1.0  0.25400  0.74800  0.12500  1.0000
  O   O2        1.0  0.76100  0.24300  0.12600  1.0000
  O   O3        1.0  0.25200  0.23600  0.24000  1.0000
  O   O4        1.0  0.76400  0.74800  0.26000  1.0000
  O   O5        1.0  0.75700  0.23900  0.37400  1.0000
  O   O6        1.0  0.25200  0.74600  0.37500  1.0000
  O   O7        1.0  0.74800  0.25400  0.62500  1.0000
  O   O8        1.0  0.24300  0.76100  0.62600  1.0000
  O   O9        1.0  0.23600  0.25200  0.74000  1.0000
  O   O10       1.0  0.74800  0.76400  0.76000  1.0000
  O   O11       1.0  0.23900  0.75700  0.87400  1.0000
  O   O12       1.0  0.74600  0.25200  0.87500  1.0000
  Te  Te1       1.0  0.35300  0.33900  0.11400  1.0000
  Te  Te2       1.0  0.66100  0.64700  0.38600  1.0000
  Te  Te3       1.0  0.33900  0.35300  0.61400  1.0000
  Te  Te4       1.0  0.64700  0.66100  0.88600  1.0000
