data_image0
_chemical_formula_structural       C6H36I18N18Sb4
_chemical_formula_sum              "C6 H36 I18 N18 Sb4"
_cell_length_a       9.07229
_cell_length_b       9.07229
_cell_length_c       20.4367
_cell_angle_alpha    90
_cell_angle_beta     90
_cell_angle_gamma    66.6921

_space_group_name_H-M_alt    "P 1"
_space_group_IT_number       1

loop_
  _space_group_symop_operation_xyz
  'x, y, z'

loop_
  _atom_site_type_symbol
  _atom_site_label
  _atom_site_symmetry_multiplicity
  _atom_site_fract_x
  _atom_site_fract_y
  _atom_site_fract_z
  _atom_site_occupancy
  C   C1        1.0  0.63500  0.63500  0.09360  1.0000
  C   C2        1.0  0.91700  0.91700  0.25000  1.0000
  C   C3        1.0  0.63500  0.63500  0.40600  1.0000
  C   C4        1.0  0.36500  0.36500  0.59400  1.0000
  C   C5        1.0  0.08320  0.08320  0.75000  1.0000
  C   C6        1.0  0.36500  0.36500  0.90600  1.0000
  H   H1        1.0  0.84000  0.66500  0.06730  1.0000
  H   H2        1.0  0.66500  0.84000  0.06730  1.0000
  H   H3        1.0  0.82600  0.41600  0.09160  1.0000
  H   H4        1.0  0.41600  0.82600  0.09160  1.0000
  H   H5        1.0  0.64500  0.40900  0.11400  1.0000
  H   H6        1.0  0.40900  0.64500  0.11400  1.0000
  H   H7        1.0  0.72300  0.13500  0.25000  1.0000
  H   H8        1.0  0.91000  0.14600  0.25000  1.0000
  H   H9        1.0  0.88200  0.70600  0.25000  1.0000
  H   H10       1.0  0.13500  0.72300  0.25000  1.0000
  H   H11       1.0  0.70600  0.88200  0.25000  1.0000
  H   H12       1.0  0.14600  0.91000  0.25000  1.0000
  H   H13       1.0  0.64500  0.40900  0.38600  1.0000
  H   H14       1.0  0.40900  0.64500  0.38600  1.0000
  H   H15       1.0  0.82600  0.41600  0.40800  1.0000
  H   H16       1.0  0.41600  0.82600  0.40800  1.0000
  H   H17       1.0  0.84000  0.66500  0.43300  1.0000
  H   H18       1.0  0.66500  0.84000  0.43300  1.0000
  H   H19       1.0  0.33500  0.16000  0.56700  1.0000
  H   H20       1.0  0.16000  0.33500  0.56700  1.0000
  H   H21       1.0  0.58400  0.17400  0.59200  1.0000
  H   H22       1.0  0.17400  0.58400  0.59200  1.0000
  H   H23       1.0  0.59100  0.35500  0.61400  1.0000
  H   H24       1.0  0.35500  0.59100  0.61400  1.0000
  H   H25       1.0  0.85400  0.08970  0.75000  1.0000
  H   H26       1.0  0.29400  0.11800  0.75000  1.0000
  H   H27       1.0  0.86500  0.27700  0.75000  1.0000
  H   H28       1.0  0.11800  0.29400  0.75000  1.0000
  H   H29       1.0  0.08970  0.85400  0.75000  1.0000
  H   H30       1.0  0.27700  0.86500  0.75000  1.0000
  H   H31       1.0  0.59100  0.35500  0.88600  1.0000
  H   H32       1.0  0.35500  0.59100  0.88600  1.0000
  H   H33       1.0  0.58400  0.17400  0.90800  1.0000
  H   H34       1.0  0.17400  0.58400  0.90800  1.0000
  H   H35       1.0  0.33500  0.16000  0.93300  1.0000
  H   H36       1.0  0.16000  0.33500  0.93300  1.0000
  I   I1        1.0  0.11100  0.11100  0.07450  1.0000
  I   I2        1.0  0.57500  0.15100  0.07710  1.0000
  I   I3        1.0  0.15100  0.57500  0.07710  1.0000
  I   I4        1.0  0.98000  0.40000  0.25000  1.0000
  I   I5        1.0  0.43700  0.43700  0.25000  1.0000
  I   I6        1.0  0.40000  0.98000  0.25000  1.0000
  I   I7        1.0  0.57500  0.15100  0.42300  1.0000
  I   I8        1.0  0.15100  0.57500  0.42300  1.0000
  I   I9        1.0  0.11100  0.11100  0.42600  1.0000
  I   I10       1.0  0.88900  0.88900  0.57400  1.0000
  I   I11       1.0  0.84900  0.42500  0.57700  1.0000
  I   I12       1.0  0.42500  0.84900  0.57700  1.0000
  I   I13       1.0  0.60000  0.01980  0.75000  1.0000
  I   I14       1.0  0.56300  0.56300  0.75000  1.0000
  I   I15       1.0  0.01980  0.60000  0.75000  1.0000
  I   I16       1.0  0.84900  0.42500  0.92300  1.0000
  I   I17       1.0  0.42500  0.84900  0.92300  1.0000
  I   I18       1.0  0.88900  0.88900  0.92600  1.0000
  N   N1        1.0  0.71800  0.71800  0.07280  1.0000
  N   N2        1.0  0.71000  0.47700  0.10500  1.0000
  N   N3        1.0  0.47700  0.71000  0.10500  1.0000
  N   N4        1.0  0.84500  0.07690  0.25000  1.0000
  N   N5        1.0  0.82900  0.82900  0.25000  1.0000
  N   N6        1.0  0.07690  0.84500  0.25000  1.0000
  N   N7        1.0  0.71000  0.47700  0.39500  1.0000
  N   N8        1.0  0.47700  0.71000  0.39500  1.0000
  N   N9        1.0  0.71800  0.71800  0.42700  1.0000
  N   N10       1.0  0.28200  0.28200  0.57300  1.0000
  N   N11       1.0  0.52300  0.29000  0.60500  1.0000
  N   N12       1.0  0.29000  0.52300  0.60500  1.0000
  N   N13       1.0  0.92300  0.15500  0.75000  1.0000
  N   N14       1.0  0.17100  0.17100  0.75000  1.0000
  N   N15       1.0  0.15500  0.92300  0.75000  1.0000
  N   N16       1.0  0.52300  0.29000  0.89500  1.0000
  N   N17       1.0  0.29000  0.52300  0.89500  1.0000
  N   N18       1.0  0.28200  0.28200  0.92700  1.0000
  Sb  Sb1       1.0  0.27400  0.27400  0.15000  1.0000
  Sb  Sb2       1.0  0.27400  0.27400  0.35000  1.0000
  Sb  Sb3       1.0  0.72600  0.72600  0.65000  1.0000
  Sb  Sb4       1.0  0.72600  0.72600  0.85000  1.0000
