data_image0
_chemical_formula_structural       C16H16Li16O32
_chemical_formula_sum              "C16 H16 Li16 O32"
_cell_length_a       8.32808
_cell_length_b       8.32808
_cell_length_c       13.0308
_cell_angle_alpha    97.5885
_cell_angle_beta     97.5885
_cell_angle_gamma    90.2196

_space_group_name_H-M_alt    "P 1"
_space_group_IT_number       1

loop_
  _space_group_symop_operation_xyz
  'x, y, z'

loop_
  _atom_site_type_symbol
  _atom_site_label
  _atom_site_symmetry_multiplicity
  _atom_site_fract_x
  _atom_site_fract_y
  _atom_site_fract_z
  _atom_site_occupancy
  C   C1        1.0  0.14400  0.35700  0.03230  1.0000
  C   C2        1.0  0.73900  0.93300  0.13100  1.0000
  C   C3        1.0  0.69200  0.40800  0.13200  1.0000
  C   C4        1.0  0.32200  0.91000  0.20400  1.0000
  C   C5        1.0  0.08950  0.67800  0.29600  1.0000
  C   C6        1.0  0.59200  0.30800  0.36800  1.0000
  C   C7        1.0  0.06710  0.26100  0.36900  1.0000
  C   C8        1.0  0.64300  0.85600  0.46800  1.0000
  C   C9        1.0  0.35700  0.14400  0.53200  1.0000
  C   C10       1.0  0.93300  0.73900  0.63100  1.0000
  C   C11       1.0  0.40800  0.69200  0.63200  1.0000
  C   C12       1.0  0.91000  0.32200  0.70400  1.0000
  C   C13       1.0  0.67800  0.08950  0.79600  1.0000
  C   C14       1.0  0.30800  0.59200  0.86800  1.0000
  C   C15       1.0  0.26100  0.06710  0.86900  1.0000
  C   C16       1.0  0.85600  0.64300  0.96800  1.0000
  H   H1        1.0  0.87600  0.59400  0.04370  1.0000
  H   H2        1.0  0.63100  0.89200  0.07410  1.0000
  H   H3        1.0  0.78500  0.36300  0.19000  1.0000
  H   H4        1.0  0.00314  0.65000  0.22300  1.0000
  H   H5        1.0  0.35000  0.99700  0.27700  1.0000
  H   H6        1.0  0.63700  0.21500  0.31000  1.0000
  H   H7        1.0  0.10800  0.36900  0.42600  1.0000
  H   H8        1.0  0.40600  0.12400  0.45600  1.0000
  H   H9        1.0  0.59400  0.87600  0.54400  1.0000
  H   H10       1.0  0.89200  0.63100  0.57400  1.0000
  H   H11       1.0  0.36300  0.78500  0.69000  1.0000
  H   H12       1.0  0.65000  0.00314  0.72300  1.0000
  H   H13       1.0  0.99700  0.35000  0.77700  1.0000
  H   H14       1.0  0.21500  0.63700  0.81000  1.0000
  H   H15       1.0  0.36900  0.10800  0.92600  1.0000
  H   H16       1.0  0.12400  0.40600  0.95600  1.0000
  Li  Li1       1.0  0.17500  0.82900  0.00038  1.0000
  Li  Li2       1.0  0.40800  0.59300  0.08900  1.0000
  Li  Li3       1.0  0.05200  0.11000  0.15600  1.0000
  Li  Li4       1.0  0.27800  0.38600  0.24100  1.0000
  Li  Li5       1.0  0.61400  0.72200  0.25900  1.0000
  Li  Li6       1.0  0.89000  0.94800  0.34400  1.0000
  Li  Li7       1.0  0.40700  0.59200  0.41100  1.0000
  Li  Li8       1.0  0.17100  0.82500  0.50000  1.0000
  Li  Li9       1.0  0.82900  0.17500  0.50000  1.0000
  Li  Li10      1.0  0.59300  0.40800  0.58900  1.0000
  Li  Li11      1.0  0.11000  0.05200  0.65600  1.0000
  Li  Li12      1.0  0.38600  0.27800  0.74100  1.0000
  Li  Li13      1.0  0.72200  0.61400  0.75900  1.0000
  Li  Li14      1.0  0.94800  0.89000  0.84400  1.0000
  Li  Li15      1.0  0.59200  0.40700  0.91100  1.0000
  Li  Li16      1.0  0.82500  0.17100  0.00000  1.0000
  O   O1        1.0  0.67000  0.32900  0.04060  1.0000
  O   O2        1.0  0.04020  0.25600  0.04890  1.0000
  O   O3        1.0  0.26800  0.40800  0.09510  1.0000
  O   O4        1.0  0.83300  0.03690  0.10800  1.0000
  O   O5        1.0  0.20400  0.94300  0.13900  1.0000
  O   O6        1.0  0.61700  0.53300  0.16000  1.0000
  O   O7        1.0  0.40900  0.78800  0.19100  1.0000
  O   O8        1.0  0.75900  0.87200  0.21600  1.0000
  O   O9        1.0  0.12800  0.24100  0.28400  1.0000
  O   O10       1.0  0.21200  0.59100  0.30900  1.0000
  O   O11       1.0  0.46700  0.38300  0.34000  1.0000
  O   O12       1.0  0.05730  0.79600  0.36100  1.0000
  O   O13       1.0  0.96300  0.16700  0.39200  1.0000
  O   O14       1.0  0.59200  0.73200  0.40500  1.0000
  O   O15       1.0  0.74400  0.96000  0.45100  1.0000
  O   O16       1.0  0.67100  0.33000  0.45900  1.0000
  O   O17       1.0  0.32900  0.67000  0.54100  1.0000
  O   O18       1.0  0.25600  0.04020  0.54900  1.0000
  O   O19       1.0  0.40800  0.26800  0.59500  1.0000
  O   O20       1.0  0.03690  0.83300  0.60800  1.0000
  O   O21       1.0  0.94300  0.20400  0.63900  1.0000
  O   O22       1.0  0.53300  0.61700  0.66000  1.0000
  O   O23       1.0  0.78800  0.40900  0.69100  1.0000
  O   O24       1.0  0.87200  0.75900  0.71600  1.0000
  O   O25       1.0  0.24100  0.12800  0.78400  1.0000
  O   O26       1.0  0.59100  0.21200  0.80900  1.0000
  O   O27       1.0  0.38300  0.46700  0.84000  1.0000
  O   O28       1.0  0.79600  0.05730  0.86100  1.0000
  O   O29       1.0  0.16700  0.96300  0.89200  1.0000
  O   O30       1.0  0.73200  0.59200  0.90500  1.0000
  O   O31       1.0  0.96000  0.74400  0.95100  1.0000
  O   O32       1.0  0.33000  0.67100  0.95900  1.0000
