data_image0
_chemical_formula_structural       N2Ni2O2Pr2
_chemical_formula_sum              "N2 Ni2 O2 Pr2"
_cell_length_a       4.93602
_cell_length_b       4.93602
_cell_length_c       4.70508
_cell_angle_alpha    90
_cell_angle_beta     90
_cell_angle_gamma    90

_space_group_name_H-M_alt    "P 1"
_space_group_IT_number       1

loop_
  _space_group_symop_operation_xyz
  'x, y, z'

loop_
  _atom_site_type_symbol
  _atom_site_label
  _atom_site_symmetry_multiplicity
  _atom_site_fract_x
  _atom_site_fract_y
  _atom_site_fract_z
  _atom_site_occupancy
  N   N1        1.0  0.75000  0.75000  0.46100  1.0000
  N   N2        1.0  0.25000  0.25000  0.53900  1.0000
  Ni  Ni1       1.0  0.75000  0.75000  0.02010  1.0000
  Ni  Ni2       1.0  0.25000  0.25000  0.98000  1.0000
  O   O1        1.0  0.75000  0.25000  0.00000  1.0000
  O   O2        1.0  0.25000  0.75000  0.00000  1.0000
  Pr  Pr1       1.0  0.75000  0.25000  0.50000  1.0000
  Pr  Pr2       1.0  0.25000  0.75000  0.50000  1.0000
