data_image0
_chemical_formula_structural       Cs2O2Sc2Te2
_chemical_formula_sum              "Cs2 O2 Sc2 Te2"
_cell_length_a       4.53419
_cell_length_b       4.53419
_cell_length_c       11.2946
_cell_angle_alpha    90
_cell_angle_beta     90
_cell_angle_gamma    90

_space_group_name_H-M_alt    "P 1"
_space_group_IT_number       1

loop_
  _space_group_symop_operation_xyz
  'x, y, z'

loop_
  _atom_site_type_symbol
  _atom_site_label
  _atom_site_symmetry_multiplicity
  _atom_site_fract_x
  _atom_site_fract_y
  _atom_site_fract_z
  _atom_site_occupancy
  Cs  Cs1       1.0  0.75000  0.25000  0.50000  1.0000
  Cs  Cs2       1.0  0.25000  0.75000  0.50000  1.0000
  O   O1        1.0  0.75000  0.25000  0.00000  1.0000
  O   O2        1.0  0.25000  0.75000  0.00000  1.0000
  Sc  Sc1       1.0  0.75000  0.75000  0.02180  1.0000
  Sc  Sc2       1.0  0.25000  0.25000  0.97800  1.0000
  Te  Te1       1.0  0.75000  0.75000  0.26100  1.0000
  Te  Te2       1.0  0.25000  0.25000  0.73900  1.0000
