data_image0
_chemical_formula_structural       CuLi2Te2
_chemical_formula_sum              "Cu1 Li2 Te2"
_cell_length_a       4.0666
_cell_length_b       5.05627
_cell_length_c       5.95383
_cell_angle_alpha    76.301
_cell_angle_beta     90.0034
_cell_angle_gamma    113.711

_space_group_name_H-M_alt    "P 1"
_space_group_IT_number       1

loop_
  _space_group_symop_operation_xyz
  'x, y, z'

loop_
  _atom_site_type_symbol
  _atom_site_label
  _atom_site_symmetry_multiplicity
  _atom_site_fract_x
  _atom_site_fract_y
  _atom_site_fract_z
  _atom_site_occupancy
  Cu  Cu1       1.0  0.50000  0.00000  0.00000  1.0000
  Li  Li1       1.0  0.16700  0.33300  0.20600  1.0000
  Li  Li2       1.0  0.83300  0.66700  0.79400  1.0000
  Te  Te1       1.0  0.85900  0.71900  0.27300  1.0000
  Te  Te2       1.0  0.14100  0.28100  0.72700  1.0000
