data_image0
_chemical_formula_structural       In2Rh3S2
_chemical_formula_sum              "In2 Rh3 S2"
_cell_length_a       5.62771
_cell_length_b       5.62771
_cell_length_c       5.62771
_cell_angle_alpha    119.276
_cell_angle_beta     60.7242
_cell_angle_gamma    119.276

_space_group_name_H-M_alt    "P 1"
_space_group_IT_number       1

loop_
  _space_group_symop_operation_xyz
  'x, y, z'

loop_
  _atom_site_type_symbol
  _atom_site_label
  _atom_site_symmetry_multiplicity
  _atom_site_fract_x
  _atom_site_fract_y
  _atom_site_fract_z
  _atom_site_occupancy
  In  In1       1.0  0.00000  0.00000  0.00000  1.0000
  In  In2       1.0  0.50000  0.50000  0.50000  1.0000
  Rh  Rh1       1.0  0.50000  0.00000  0.00000  1.0000
  Rh  Rh2       1.0  0.00000  0.50000  0.00000  1.0000
  Rh  Rh3       1.0  1.00000  0.00000  0.50000  1.0000
  S   S1        1.0  0.28500  0.71500  0.28500  1.0000
  S   S2        1.0  0.71500  0.28500  0.71500  1.0000
