data_image0
_chemical_formula_structural       Ge2Ir2O2P2
_chemical_formula_sum              "Ge2 Ir2 O2 P2"
_cell_length_a       4.4272
_cell_length_b       4.4272
_cell_length_c       5.60873
_cell_angle_alpha    90
_cell_angle_beta     90
_cell_angle_gamma    90

_space_group_name_H-M_alt    "P 1"
_space_group_IT_number       1

loop_
  _space_group_symop_operation_xyz
  'x, y, z'

loop_
  _atom_site_type_symbol
  _atom_site_label
  _atom_site_symmetry_multiplicity
  _atom_site_fract_x
  _atom_site_fract_y
  _atom_site_fract_z
  _atom_site_occupancy
  Ge  Ge1       1.0  0.50000  0.00000  0.50000  1.0000
  Ge  Ge2       1.0  0.00000  0.50000  0.50000  1.0000
  Ir  Ir1       1.0  0.00000  0.00000  0.07830  1.0000
  Ir  Ir2       1.0  0.50000  0.50000  0.92200  1.0000
  O   O1        1.0  0.50000  0.00000  0.00000  1.0000
  O   O2        1.0  0.00000  0.50000  0.00000  1.0000
  P   P1        1.0  0.50000  0.50000  0.32900  1.0000
  P   P2        1.0  0.00000  0.00000  0.67100  1.0000
