data_image0
_chemical_formula_structural       Mg2O2P2W2
_chemical_formula_sum              "Mg2 O2 P2 W2"
_cell_length_a       3.54574
_cell_length_b       3.54574
_cell_length_c       8.21228
_cell_angle_alpha    90
_cell_angle_beta     90
_cell_angle_gamma    90

_space_group_name_H-M_alt    "P 1"
_space_group_IT_number       1

loop_
  _space_group_symop_operation_xyz
  'x, y, z'

loop_
  _atom_site_type_symbol
  _atom_site_label
  _atom_site_symmetry_multiplicity
  _atom_site_fract_x
  _atom_site_fract_y
  _atom_site_fract_z
  _atom_site_occupancy
  Mg  Mg1       1.0  0.50000  0.00000  0.50000  1.0000
  Mg  Mg2       1.0  0.00000  0.50000  0.50000  1.0000
  O   O1        1.0  0.50000  0.00000  0.00000  1.0000
  O   O2        1.0  0.00000  0.50000  0.00000  1.0000
  P   P1        1.0  0.50000  0.50000  0.27600  1.0000
  P   P2        1.0  0.00000  0.00000  0.72400  1.0000
  W   W1        1.0  0.00000  0.00000  0.15700  1.0000
  W   W2        1.0  0.50000  0.50000  0.84300  1.0000
