data_image0
_chemical_formula_structural       Ba2O4Zr
_chemical_formula_sum              "Ba2 O4 Zr1"
_cell_length_a       4.20722
_cell_length_b       4.20722
_cell_length_c       7.36553
_cell_angle_alpha    106.595
_cell_angle_beta     106.595
_cell_angle_gamma    90

_space_group_name_H-M_alt    "P 1"
_space_group_IT_number       1

loop_
  _space_group_symop_operation_xyz
  'x, y, z'

loop_
  _atom_site_type_symbol
  _atom_site_label
  _atom_site_symmetry_multiplicity
  _atom_site_fract_x
  _atom_site_fract_y
  _atom_site_fract_z
  _atom_site_occupancy
  Ba  Ba1       1.0  0.64700  0.64700  0.29500  1.0000
  Ba  Ba2       1.0  0.35300  0.35300  0.70500  1.0000
  O   O1        1.0  0.50000  0.00000  0.00000  1.0000
  O   O2        1.0  0.00000  0.50000  0.00000  1.0000
  O   O3        1.0  0.15900  0.15900  0.31700  1.0000
  O   O4        1.0  0.84100  0.84100  0.68300  1.0000
  Zr  Zr1       1.0  0.00000  0.00000  0.00000  1.0000
