data_image0
_chemical_formula_structural       Np2O2P2Pa2
_chemical_formula_sum              "Np2 O2 P2 Pa2"
_cell_length_a       4.22962
_cell_length_b       4.22962
_cell_length_c       9.23081
_cell_angle_alpha    90
_cell_angle_beta     90
_cell_angle_gamma    90

_space_group_name_H-M_alt    "P 1"
_space_group_IT_number       1

loop_
  _space_group_symop_operation_xyz
  'x, y, z'

loop_
  _atom_site_type_symbol
  _atom_site_label
  _atom_site_symmetry_multiplicity
  _atom_site_fract_x
  _atom_site_fract_y
  _atom_site_fract_z
  _atom_site_occupancy
  Np  Np1       1.0  0.00000  0.00000  0.12300  1.0000
  Np  Np2       1.0  0.50000  0.50000  0.87700  1.0000
  O   O1        1.0  0.50000  0.00000  0.00000  1.0000
  O   O2        1.0  0.00000  0.50000  0.00000  1.0000
  P   P1        1.0  0.50000  0.50000  0.28700  1.0000
  P   P2        1.0  0.00000  0.00000  0.71300  1.0000
  Pa  Pa1       1.0  0.50000  0.00000  0.50000  1.0000
  Pa  Pa2       1.0  0.00000  0.50000  0.50000  1.0000
