data_image0
_chemical_formula_structural       O2P2Pb2Rh2
_chemical_formula_sum              "O2 P2 Pb2 Rh2"
_cell_length_a       4.29367
_cell_length_b       4.29367
_cell_length_c       9.07836
_cell_angle_alpha    90
_cell_angle_beta     90
_cell_angle_gamma    90

_space_group_name_H-M_alt    "P 1"
_space_group_IT_number       1

loop_
  _space_group_symop_operation_xyz
  'x, y, z'

loop_
  _atom_site_type_symbol
  _atom_site_label
  _atom_site_symmetry_multiplicity
  _atom_site_fract_x
  _atom_site_fract_y
  _atom_site_fract_z
  _atom_site_occupancy
  O   O1        1.0  0.50000  0.00000  0.00000  1.0000
  O   O2        1.0  0.00000  0.50000  0.00000  1.0000
  P   P1        1.0  0.50000  0.50000  0.28500  1.0000
  P   P2        1.0  0.00000  0.00000  0.71500  1.0000
  Pb  Pb1       1.0  0.50000  0.00000  0.50000  1.0000
  Pb  Pb2       1.0  0.00000  0.50000  0.50000  1.0000
  Rh  Rh1       1.0  0.50000  0.50000  0.04730  1.0000
  Rh  Rh2       1.0  0.00000  0.00000  0.95300  1.0000
