data_image0
_chemical_formula_structural       O2P2Si2Th2
_chemical_formula_sum              "O2 P2 Si2 Th2"
_cell_length_a       3.82535
_cell_length_b       3.82535
_cell_length_c       9.96718
_cell_angle_alpha    90
_cell_angle_beta     90
_cell_angle_gamma    90

_space_group_name_H-M_alt    "P 1"
_space_group_IT_number       1

loop_
  _space_group_symop_operation_xyz
  'x, y, z'

loop_
  _atom_site_type_symbol
  _atom_site_label
  _atom_site_symmetry_multiplicity
  _atom_site_fract_x
  _atom_site_fract_y
  _atom_site_fract_z
  _atom_site_occupancy
  O   O1        1.0  0.75000  0.25000  0.00000  1.0000
  O   O2        1.0  0.25000  0.75000  0.00000  1.0000
  P   P1        1.0  0.75000  0.75000  0.28300  1.0000
  P   P2        1.0  0.25000  0.25000  0.71700  1.0000
  Si  Si1       1.0  0.75000  0.25000  0.50000  1.0000
  Si  Si2       1.0  0.25000  0.75000  0.50000  1.0000
  Th  Th1       1.0  0.25000  0.25000  0.14500  1.0000
  Th  Th2       1.0  0.75000  0.75000  0.85500  1.0000
