data_image0
_chemical_formula_structural       PtS3Sn2
_chemical_formula_sum              "Pt1 S3 Sn2"
_cell_length_a       8.06027
_cell_length_b       8.06027
_cell_length_c       8.06027
_cell_angle_alpha    152.978
_cell_angle_beta     146.201
_cell_angle_gamma    43.7948

_space_group_name_H-M_alt    "P 1"
_space_group_IT_number       1

loop_
  _space_group_symop_operation_xyz
  'x, y, z'

loop_
  _atom_site_type_symbol
  _atom_site_label
  _atom_site_symmetry_multiplicity
  _atom_site_fract_x
  _atom_site_fract_y
  _atom_site_fract_z
  _atom_site_occupancy
  Pt  Pt1       1.0  0.00000  0.00000  0.00000  1.0000
  S   S1        1.0  0.15800  0.15800  0.00000  1.0000
  S   S2        1.0  0.84200  0.84200  1.00000  1.0000
  S   S3        1.0  0.50000  0.00000  0.50000  1.0000
  Sn  Sn1       1.0  0.35400  0.35400  1.00000  1.0000
  Sn  Sn2       1.0  0.64600  0.64600  1.00000  1.0000
