data_image0
_chemical_formula_structural       La4PdS7
_chemical_formula_sum              "La4 Pd1 S7"
_cell_length_a       8.09359
_cell_length_b       8.09359
_cell_length_c       10.8377
_cell_angle_alpha    129.104
_cell_angle_beta     129.104
_cell_angle_gamma    33.916

_space_group_name_H-M_alt    "P 1"
_space_group_IT_number       1

loop_
  _space_group_symop_operation_xyz
  'x, y, z'

loop_
  _atom_site_type_symbol
  _atom_site_label
  _atom_site_symmetry_multiplicity
  _atom_site_fract_x
  _atom_site_fract_y
  _atom_site_fract_z
  _atom_site_occupancy
  La  La1       1.0  0.41300  0.41300  0.22000  1.0000
  La  La2       1.0  0.72700  0.72700  0.33000  1.0000
  La  La3       1.0  0.27300  0.27300  0.67000  1.0000
  La  La4       1.0  0.58700  0.58700  0.78000  1.0000
  Pd  Pd1       1.0  0.00000  0.00000  0.00000  1.0000
  S   S1        1.0  0.50000  0.50000  0.00000  1.0000
  S   S2        1.0  0.78300  0.78300  0.13700  1.0000
  S   S3        1.0  0.07340  0.07340  0.27300  1.0000
  S   S4        1.0  0.36400  0.36400  0.44400  1.0000
  S   S5        1.0  0.63600  0.63600  0.55600  1.0000
  S   S6        1.0  0.92700  0.92700  0.72700  1.0000
  S   S7        1.0  0.21700  0.21700  0.86300  1.0000
