data_image0
_chemical_formula_structural       Cr3S4
_chemical_formula_sum              "Cr3 S4"
_cell_length_a       3.4542
_cell_length_b       6.06527
_cell_length_c       6.52588
_cell_angle_alpha    115.982
_cell_angle_beta     105.346
_cell_angle_gamma    90

_space_group_name_H-M_alt    "P 1"
_space_group_IT_number       1

loop_
  _space_group_symop_operation_xyz
  'x, y, z'

loop_
  _atom_site_type_symbol
  _atom_site_label
  _atom_site_symmetry_multiplicity
  _atom_site_fract_x
  _atom_site_fract_y
  _atom_site_fract_z
  _atom_site_occupancy
  Cr  Cr1       1.0  0.00000  0.00000  0.00000  1.0000
  Cr  Cr2       1.0  0.73600  0.71800  0.47100  1.0000
  Cr  Cr3       1.0  0.26400  0.28200  0.52900  1.0000
  S   S1        1.0  0.12400  0.44800  0.24800  1.0000
  S   S2        1.0  0.63400  0.98000  0.26800  1.0000
  S   S3        1.0  0.36600  0.01990  0.73200  1.0000
  S   S4        1.0  0.87600  0.55200  0.75200  1.0000
