data_image0
_chemical_formula_structural       Hf4Pd2Ru2Sb4
_chemical_formula_sum              "Hf4 Pd2 Ru2 Sb4"
_cell_length_a       6.33032
_cell_length_b       6.33032
_cell_length_c       7.73714
_cell_angle_alpha    65.8525
_cell_angle_beta     65.8525
_cell_angle_gamma    90

_space_group_name_H-M_alt    "P 1"
_space_group_IT_number       1

loop_
  _space_group_symop_operation_xyz
  'x, y, z'

loop_
  _atom_site_type_symbol
  _atom_site_label
  _atom_site_symmetry_multiplicity
  _atom_site_fract_x
  _atom_site_fract_y
  _atom_site_fract_z
  _atom_site_occupancy
  Hf  Hf1       1.0  0.12500  0.11900  0.25000  1.0000
  Hf  Hf2       1.0  0.62500  0.63100  0.25000  1.0000
  Hf  Hf3       1.0  0.36900  0.87500  0.75000  1.0000
  Hf  Hf4       1.0  0.88100  0.37500  0.75000  1.0000
  Pd  Pd1       1.0  0.50000  0.50000  0.00000  1.0000
  Pd  Pd2       1.0  0.75000  0.25000  0.50000  1.0000
  Ru  Ru1       1.0  0.00000  0.00000  0.00000  1.0000
  Ru  Ru2       1.0  0.25000  0.75000  0.50000  1.0000
  Sb  Sb1       1.0  0.62500  0.12000  0.25000  1.0000
  Sb  Sb2       1.0  0.12500  0.63000  0.25000  1.0000
  Sb  Sb3       1.0  0.37000  0.37500  0.75000  1.0000
  Sb  Sb4       1.0  0.88000  0.87500  0.75000  1.0000
