data_image0
_chemical_formula_structural       Ga2Pd4Sb2Ti4
_chemical_formula_sum              "Ga2 Pd4 Sb2 Ti4"
_cell_length_a       7.46404
_cell_length_b       7.46404
_cell_length_c       7.46404
_cell_angle_alpha    131.8
_cell_angle_beta     131.8
_cell_angle_gamma    70.5458

_space_group_name_H-M_alt    "P 1"
_space_group_IT_number       1

loop_
  _space_group_symop_operation_xyz
  'x, y, z'

loop_
  _atom_site_type_symbol
  _atom_site_label
  _atom_site_symmetry_multiplicity
  _atom_site_fract_x
  _atom_site_fract_y
  _atom_site_fract_z
  _atom_site_occupancy
  Ga  Ga1       1.0  0.00000  0.00000  0.00000  1.0000
  Ga  Ga2       1.0  0.75000  0.25000  0.50000  1.0000
  Pd  Pd1       1.0  0.63200  0.12500  0.00735  1.0000
  Pd  Pd2       1.0  0.37500  0.36800  0.49300  1.0000
  Pd  Pd3       1.0  0.87500  0.88200  0.50700  1.0000
  Pd  Pd4       1.0  0.11800  0.62500  0.99300  1.0000
  Sb  Sb1       1.0  0.50000  0.50000  0.00000  1.0000
  Sb  Sb2       1.0  0.25000  0.75000  0.50000  1.0000
  Ti  Ti1       1.0  0.24400  0.24400  0.00000  1.0000
  Ti  Ti2       1.0  0.75600  0.75600  0.00000  1.0000
  Ti  Ti3       1.0  0.50600  0.00638  0.50000  1.0000
  Ti  Ti4       1.0  0.99400  0.49400  0.50000  1.0000
