data_image0
_chemical_formula_structural       Bi2In2Ir4V4
_chemical_formula_sum              "Bi2 In2 Ir4 V4"
_cell_length_a       6.14595
_cell_length_b       6.14595
_cell_length_c       7.54398
_cell_angle_alpha    65.9621
_cell_angle_beta     65.9621
_cell_angle_gamma    90

_space_group_name_H-M_alt    "P 1"
_space_group_IT_number       1

loop_
  _space_group_symop_operation_xyz
  'x, y, z'

loop_
  _atom_site_type_symbol
  _atom_site_label
  _atom_site_symmetry_multiplicity
  _atom_site_fract_x
  _atom_site_fract_y
  _atom_site_fract_z
  _atom_site_occupancy
  Bi  Bi1       1.0  0.50000  0.50000  0.00000  1.0000
  Bi  Bi2       1.0  0.75000  0.25000  0.50000  1.0000
  In  In1       1.0  0.00000  0.00000  0.00000  1.0000
  In  In2       1.0  0.25000  0.75000  0.50000  1.0000
  Ir  Ir1       1.0  0.62500  0.12000  0.25000  1.0000
  Ir  Ir2       1.0  0.12500  0.63000  0.25000  1.0000
  Ir  Ir3       1.0  0.88000  0.87500  0.75000  1.0000
  Ir  Ir4       1.0  0.37000  0.37500  0.75000  1.0000
  V   V1        1.0  0.49400  0.99400  0.01240  1.0000
  V   V2        1.0  0.75600  0.75600  0.48800  1.0000
  V   V3        1.0  0.24400  0.24400  0.51200  1.0000
  V   V4        1.0  0.00621  0.50600  0.98800  1.0000
