data_image0
_chemical_formula_structural       Ir4Lu2Sb4V2
_chemical_formula_sum              "Ir4 Lu2 Sb4 V2"
_cell_length_a       6.25874
_cell_length_b       4.45531
_cell_length_c       8.8069
_cell_angle_alpha    90
_cell_angle_beta     90
_cell_angle_gamma    90

_space_group_name_H-M_alt    "P 1"
_space_group_IT_number       1

loop_
  _space_group_symop_operation_xyz
  'x, y, z'

loop_
  _atom_site_type_symbol
  _atom_site_label
  _atom_site_symmetry_multiplicity
  _atom_site_fract_x
  _atom_site_fract_y
  _atom_site_fract_z
  _atom_site_occupancy
  Ir  Ir1       1.0  0.73200  0.50000  0.10900  1.0000
  Ir  Ir2       1.0  0.27600  0.00000  0.34800  1.0000
  Ir  Ir3       1.0  0.77600  0.50000  0.65200  1.0000
  Ir  Ir4       1.0  0.23200  0.00000  0.89100  1.0000
  Lu  Lu1       1.0  0.00919  0.50000  0.37400  1.0000
  Lu  Lu2       1.0  0.50900  0.00000  0.62600  1.0000
  Sb  Sb1       1.0  0.97700  0.00000  0.12500  1.0000
  Sb  Sb2       1.0  0.51600  0.50000  0.37400  1.0000
  Sb  Sb3       1.0  0.01640  0.00000  0.62600  1.0000
  Sb  Sb4       1.0  0.47700  0.50000  0.87500  1.0000
  V   V1        1.0  0.48900  0.00000  0.11900  1.0000
  V   V2        1.0  0.98900  0.50000  0.88100  1.0000
