data_image0
_chemical_formula_structural       Bi4Hf4Os2Pd2
_chemical_formula_sum              "Bi4 Hf4 Os2 Pd2"
_cell_length_a       7.91368
_cell_length_b       7.91368
_cell_length_c       6.47229
_cell_angle_alpha    114.138
_cell_angle_beta     114.138
_cell_angle_gamma    109.336

_space_group_name_H-M_alt    "P 1"
_space_group_IT_number       1

loop_
  _space_group_symop_operation_xyz
  'x, y, z'

loop_
  _atom_site_type_symbol
  _atom_site_label
  _atom_site_symmetry_multiplicity
  _atom_site_fract_x
  _atom_site_fract_y
  _atom_site_fract_z
  _atom_site_occupancy
  Bi  Bi1       1.0  0.37500  0.12500  0.00039  1.0000
  Bi  Bi2       1.0  0.62500  0.87500  0.50000  1.0000
  Bi  Bi3       1.0  0.12500  0.37500  0.50000  1.0000
  Bi  Bi4       1.0  0.87500  0.62500  0.00000  1.0000
  Hf  Hf1       1.0  0.12500  0.37500  0.01020  1.0000
  Hf  Hf2       1.0  0.36500  0.11500  0.49000  1.0000
  Hf  Hf3       1.0  0.88500  0.63500  0.51000  1.0000
  Hf  Hf4       1.0  0.62500  0.87500  0.99000  1.0000
  Os  Os1       1.0  0.00000  0.00000  0.00000  1.0000
  Os  Os2       1.0  0.25000  0.75000  0.50000  1.0000
  Pd  Pd1       1.0  0.50000  0.50000  0.00000  1.0000
  Pd  Pd2       1.0  0.75000  0.25000  0.50000  1.0000
