data_image0
_chemical_formula_structural       In2Ir4Sb2V4
_chemical_formula_sum              "In2 Ir4 Sb2 V4"
_cell_length_a       6.07966
_cell_length_b       6.07966
_cell_length_c       7.44921
_cell_angle_alpha    65.9161
_cell_angle_beta     65.9161
_cell_angle_gamma    90

_space_group_name_H-M_alt    "P 1"
_space_group_IT_number       1

loop_
  _space_group_symop_operation_xyz
  'x, y, z'

loop_
  _atom_site_type_symbol
  _atom_site_label
  _atom_site_symmetry_multiplicity
  _atom_site_fract_x
  _atom_site_fract_y
  _atom_site_fract_z
  _atom_site_occupancy
  In  In1       1.0  0.00000  0.00000  0.00000  1.0000
  In  In2       1.0  0.25000  0.75000  0.50000  1.0000
  Ir  Ir1       1.0  0.62500  0.13400  0.25000  1.0000
  Ir  Ir2       1.0  0.12500  0.61600  0.25000  1.0000
  Ir  Ir3       1.0  0.86600  0.87500  0.75000  1.0000
  Ir  Ir4       1.0  0.38400  0.37500  0.75000  1.0000
  Sb  Sb1       1.0  0.50000  0.50000  0.00000  1.0000
  Sb  Sb2       1.0  0.75000  0.25000  0.50000  1.0000
  V   V1        1.0  0.49700  0.99700  0.00518  1.0000
  V   V2        1.0  0.75300  0.75300  0.49500  1.0000
  V   V3        1.0  0.24700  0.24700  0.50500  1.0000
  V   V4        1.0  0.00259  0.50300  0.99500  1.0000
