data_image0
_chemical_formula_structural       Co4In2Nb4Sb2
_chemical_formula_sum              "Co4 In2 Nb4 Sb2"
_cell_length_a       5.95242
_cell_length_b       5.95242
_cell_length_c       7.29586
_cell_angle_alpha    65.9251
_cell_angle_beta     65.9251
_cell_angle_gamma    90

_space_group_name_H-M_alt    "P 1"
_space_group_IT_number       1

loop_
  _space_group_symop_operation_xyz
  'x, y, z'

loop_
  _atom_site_type_symbol
  _atom_site_label
  _atom_site_symmetry_multiplicity
  _atom_site_fract_x
  _atom_site_fract_y
  _atom_site_fract_z
  _atom_site_occupancy
  Co  Co1       1.0  0.62500  0.13700  0.25000  1.0000
  Co  Co2       1.0  0.12500  0.61300  0.25000  1.0000
  Co  Co3       1.0  0.86300  0.87500  0.75000  1.0000
  Co  Co4       1.0  0.38700  0.37500  0.75000  1.0000
  In  In1       1.0  0.00000  0.00000  0.00000  1.0000
  In  In2       1.0  0.25000  0.75000  0.50000  1.0000
  Nb  Nb1       1.0  0.49800  0.99800  0.00470  1.0000
  Nb  Nb2       1.0  0.75200  0.75200  0.49500  1.0000
  Nb  Nb3       1.0  0.24800  0.24800  0.50500  1.0000
  Nb  Nb4       1.0  0.00235  0.50200  0.99500  1.0000
  Sb  Sb1       1.0  0.50000  0.50000  0.00000  1.0000
  Sb  Sb2       1.0  0.75000  0.25000  0.50000  1.0000
