data_image0
_chemical_formula_structural       Bi2In2Ni4Zr4
_chemical_formula_sum              "Bi2 In2 Ni4 Zr4"
_cell_length_a       6.24827
_cell_length_b       6.24827
_cell_length_c       7.6697
_cell_angle_alpha    65.9625
_cell_angle_beta     65.9625
_cell_angle_gamma    90

_space_group_name_H-M_alt    "P 1"
_space_group_IT_number       1

loop_
  _space_group_symop_operation_xyz
  'x, y, z'

loop_
  _atom_site_type_symbol
  _atom_site_label
  _atom_site_symmetry_multiplicity
  _atom_site_fract_x
  _atom_site_fract_y
  _atom_site_fract_z
  _atom_site_occupancy
  Bi  Bi1       1.0  0.50000  0.50000  0.00000  1.0000
  Bi  Bi2       1.0  0.75000  0.25000  0.50000  1.0000
  In  In1       1.0  0.00000  0.00000  0.00000  1.0000
  In  In2       1.0  0.25000  0.75000  0.50000  1.0000
  Ni  Ni1       1.0  0.12500  0.62500  0.25000  1.0000
  Ni  Ni2       1.0  0.62500  0.12500  0.25000  1.0000
  Ni  Ni3       1.0  0.87500  0.87500  0.75000  1.0000
  Ni  Ni4       1.0  0.37500  0.37500  0.75000  1.0000
  Zr  Zr1       1.0  0.49500  0.99500  0.01060  1.0000
  Zr  Zr2       1.0  0.75500  0.75500  0.48900  1.0000
  Zr  Zr3       1.0  0.24500  0.24500  0.51100  1.0000
  Zr  Zr4       1.0  0.00528  0.50500  0.98900  1.0000
