data_image0
_chemical_formula_structural       Bi2Li2Ni3
_chemical_formula_sum              "Bi2 Li2 Ni3"
_cell_length_a       7.43288
_cell_length_b       7.43288
_cell_length_c       7.43288
_cell_angle_alpha    33.9033
_cell_angle_beta     33.9033
_cell_angle_gamma    33.9033

_space_group_name_H-M_alt    "P 1"
_space_group_IT_number       1

loop_
  _space_group_symop_operation_xyz
  'x, y, z'

loop_
  _atom_site_type_symbol
  _atom_site_label
  _atom_site_symmetry_multiplicity
  _atom_site_fract_x
  _atom_site_fract_y
  _atom_site_fract_z
  _atom_site_occupancy
  Bi  Bi1       1.0  0.00439  0.00439  0.00439  1.0000
  Bi  Bi2       1.0  0.49700  0.49700  0.49700  1.0000
  Li  Li1       1.0  0.24600  0.24600  0.24600  1.0000
  Li  Li2       1.0  0.75300  0.75300  0.75300  1.0000
  Ni  Ni1       1.0  0.37000  0.37000  0.37000  1.0000
  Ni  Ni2       1.0  0.62500  0.62500  0.62500  1.0000
  Ni  Ni3       1.0  0.87900  0.87900  0.87900  1.0000
