data_image0
_chemical_formula_structural       Ga2Te5
_chemical_formula_sum              "Ga2 Te5"
_cell_length_a       6.6828
_cell_length_b       6.6828
_cell_length_c       6.6828
_cell_angle_alpha    105.795
_cell_angle_beta     117.105
_cell_angle_gamma    105.795

_space_group_name_H-M_alt    "P 1"
_space_group_IT_number       1

loop_
  _space_group_symop_operation_xyz
  'x, y, z'

loop_
  _atom_site_type_symbol
  _atom_site_label
  _atom_site_symmetry_multiplicity
  _atom_site_fract_x
  _atom_site_fract_y
  _atom_site_fract_z
  _atom_site_occupancy
  Ga  Ga1       1.0  0.75000  0.50000  0.25000  1.0000
  Ga  Ga2       1.0  0.25000  0.50000  0.75000  1.0000
  Te  Te1       1.0  0.00000  0.00000  0.00000  1.0000
  Te  Te2       1.0  0.67100  0.85800  0.18800  1.0000
  Te  Te3       1.0  0.18800  0.51700  0.32900  1.0000
  Te  Te4       1.0  0.81200  0.48300  0.67100  1.0000
  Te  Te5       1.0  0.32900  0.14200  0.81200  1.0000
