data_image0
_chemical_formula_structural       Co3Ga3Zr3
_chemical_formula_sum              "Co3 Ga3 Zr3"
_cell_length_a       6.92952
_cell_length_b       6.92952
_cell_length_c       3.3745
_cell_angle_alpha    90
_cell_angle_beta     90
_cell_angle_gamma    120

_space_group_name_H-M_alt    "P 1"
_space_group_IT_number       1

loop_
  _space_group_symop_operation_xyz
  'x, y, z'

loop_
  _atom_site_type_symbol
  _atom_site_label
  _atom_site_symmetry_multiplicity
  _atom_site_fract_x
  _atom_site_fract_y
  _atom_site_fract_z
  _atom_site_occupancy
  Co  Co1       1.0  0.66700  0.33300  0.00000  1.0000
  Co  Co2       1.0  0.33300  0.66700  0.00000  1.0000
  Co  Co3       1.0  0.00000  0.00000  0.50000  1.0000
  Ga  Ga1       1.0  0.26000  0.00000  0.00000  1.0000
  Ga  Ga2       1.0  0.00000  0.26000  0.00000  1.0000
  Ga  Ga3       1.0  0.74000  0.74000  0.00000  1.0000
  Zr  Zr1       1.0  0.59500  0.00000  0.50000  1.0000
  Zr  Zr2       1.0  0.40500  0.40500  0.50000  1.0000
  Zr  Zr3       1.0  0.00000  0.59500  0.50000  1.0000
