data_image0
_chemical_formula_structural       Cu2Ho2Sb4
_chemical_formula_sum              "Cu2 Ho2 Sb4"
_cell_length_a       4.29886
_cell_length_b       4.29886
_cell_length_c       9.80695
_cell_angle_alpha    90
_cell_angle_beta     90
_cell_angle_gamma    90

_space_group_name_H-M_alt    "P 1"
_space_group_IT_number       1

loop_
  _space_group_symop_operation_xyz
  'x, y, z'

loop_
  _atom_site_type_symbol
  _atom_site_label
  _atom_site_symmetry_multiplicity
  _atom_site_fract_x
  _atom_site_fract_y
  _atom_site_fract_z
  _atom_site_occupancy
  Cu  Cu1       1.0  0.75000  0.25000  0.50000  1.0000
  Cu  Cu2       1.0  0.25000  0.75000  0.50000  1.0000
  Ho  Ho1       1.0  0.25000  0.25000  0.24900  1.0000
  Ho  Ho2       1.0  0.75000  0.75000  0.75100  1.0000
  Sb  Sb1       1.0  0.75000  0.25000  0.00000  1.0000
  Sb  Sb2       1.0  0.25000  0.75000  0.00000  1.0000
  Sb  Sb3       1.0  0.75000  0.75000  0.33700  1.0000
  Sb  Sb4       1.0  0.25000  0.25000  0.66300  1.0000
