data_image0
_chemical_formula_structural       Gd3Ge3Li3
_chemical_formula_sum              "Gd3 Ge3 Li3"
_cell_length_a       7.10668
_cell_length_b       7.10668
_cell_length_c       4.28504
_cell_angle_alpha    90
_cell_angle_beta     90
_cell_angle_gamma    120

_space_group_name_H-M_alt    "P 1"
_space_group_IT_number       1

loop_
  _space_group_symop_operation_xyz
  'x, y, z'

loop_
  _atom_site_type_symbol
  _atom_site_label
  _atom_site_symmetry_multiplicity
  _atom_site_fract_x
  _atom_site_fract_y
  _atom_site_fract_z
  _atom_site_occupancy
  Gd  Gd1       1.0  0.57600  0.00000  0.00000  1.0000
  Gd  Gd2       1.0  0.42400  0.42400  0.00000  1.0000
  Gd  Gd3       1.0  1.00000  0.57600  0.00000  1.0000
  Ge  Ge1       1.0  0.00001  0.00000  0.00000  1.0000
  Ge  Ge2       1.0  0.66700  0.33300  0.50000  1.0000
  Ge  Ge3       1.0  0.33300  0.66700  0.50000  1.0000
  Li  Li1       1.0  0.23100  0.00001  0.50000  1.0000
  Li  Li2       1.0  0.00001  0.23100  0.50000  1.0000
  Li  Li3       1.0  0.76900  0.76900  0.50000  1.0000
