data_image0
_chemical_formula_structural       Ge2Sc2Tb2
_chemical_formula_sum              "Ge2 Sc2 Tb2"
_cell_length_a       4.25182
_cell_length_b       4.25182
_cell_length_c       8.352
_cell_angle_alpha    104.746
_cell_angle_beta     104.746
_cell_angle_gamma    90

_space_group_name_H-M_alt    "P 1"
_space_group_IT_number       1

loop_
  _space_group_symop_operation_xyz
  'x, y, z'

loop_
  _atom_site_type_symbol
  _atom_site_label
  _atom_site_symmetry_multiplicity
  _atom_site_fract_x
  _atom_site_fract_y
  _atom_site_fract_z
  _atom_site_occupancy
  Ge  Ge1       1.0  0.12800  0.12800  0.25600  1.0000
  Ge  Ge2       1.0  0.87200  0.87200  0.74400  1.0000
  Sc  Sc1       1.0  0.50000  0.00000  0.00000  1.0000
  Sc  Sc2       1.0  0.00000  0.50000  0.00000  1.0000
  Tb  Tb1       1.0  0.67700  0.67700  0.35400  1.0000
  Tb  Tb2       1.0  0.32300  0.32300  0.64600  1.0000
