data_image0
_chemical_formula_structural       Cu2Na4P2
_chemical_formula_sum              "Cu2 Na4 P2"
_cell_length_a       5.23829
_cell_length_b       5.52511
_cell_length_c       5.52511
_cell_angle_alpha    102.43
_cell_angle_beta     90
_cell_angle_gamma    90

_space_group_name_H-M_alt    "P 1"
_space_group_IT_number       1

loop_
  _space_group_symop_operation_xyz
  'x, y, z'

loop_
  _atom_site_type_symbol
  _atom_site_label
  _atom_site_symmetry_multiplicity
  _atom_site_fract_x
  _atom_site_fract_y
  _atom_site_fract_z
  _atom_site_occupancy
  Cu  Cu1       1.0  0.00000  0.50000  0.50000  1.0000
  Cu  Cu2       1.0  0.50000  0.50000  0.50000  1.0000
  Na  Na1       1.0  0.25000  0.68500  0.03170  1.0000
  Na  Na2       1.0  0.75000  0.96800  0.31500  1.0000
  Na  Na3       1.0  0.25000  0.03170  0.68500  1.0000
  Na  Na4       1.0  0.75000  0.31500  0.96800  1.0000
  P   P1        1.0  0.25000  0.23800  0.23800  1.0000
  P   P2        1.0  0.75000  0.76200  0.76200  1.0000
