data_image0
_chemical_formula_structural       In2Te4Tl2
_chemical_formula_sum              "In2 Te4 Tl2"
_cell_length_a       7.0642
_cell_length_b       7.0642
_cell_length_c       7.0642
_cell_angle_alpha    118.188
_cell_angle_beta     105.297
_cell_angle_gamma    105.297

_space_group_name_H-M_alt    "P 1"
_space_group_IT_number       1

loop_
  _space_group_symop_operation_xyz
  'x, y, z'

loop_
  _atom_site_type_symbol
  _atom_site_label
  _atom_site_symmetry_multiplicity
  _atom_site_fract_x
  _atom_site_fract_y
  _atom_site_fract_z
  _atom_site_occupancy
  In  In1       1.0  0.50000  0.75000  0.25000  1.0000
  In  In2       1.0  0.50000  0.25000  0.75000  1.0000
  Te  Te1       1.0  0.50000  0.31800  0.18200  1.0000
  Te  Te2       1.0  0.13600  0.81800  0.31800  1.0000
  Te  Te3       1.0  0.86400  0.18200  0.68200  1.0000
  Te  Te4       1.0  0.50000  0.68200  0.81800  1.0000
  Tl  Tl1       1.0  0.00000  0.25000  0.25000  1.0000
  Tl  Tl2       1.0  0.00000  0.75000  0.75000  1.0000
