data_image0
_chemical_formula_structural       H2O4Yb2
_chemical_formula_sum              "H2 O4 Yb2"
_cell_length_a       5.76735
_cell_length_b       3.56058
_cell_length_c       4.29374
_cell_angle_alpha    90
_cell_angle_beta     109.089
_cell_angle_gamma    90

_space_group_name_H-M_alt    "P 1"
_space_group_IT_number       1

loop_
  _space_group_symop_operation_xyz
  'x, y, z'

loop_
  _atom_site_type_symbol
  _atom_site_label
  _atom_site_symmetry_multiplicity
  _atom_site_fract_x
  _atom_site_fract_y
  _atom_site_fract_z
  _atom_site_occupancy
  H   H1        1.0  0.41100  0.25000  0.99400  1.0000
  H   H2        1.0  0.58900  0.75000  0.00636  1.0000
  O   O1        1.0  0.43300  0.25000  0.22900  1.0000
  O   O2        1.0  0.93700  0.25000  0.23300  1.0000
  O   O3        1.0  0.06270  0.75000  0.76700  1.0000
  O   O4        1.0  0.56700  0.75000  0.77100  1.0000
  Yb  Yb1       1.0  0.20400  0.75000  0.33200  1.0000
  Yb  Yb2       1.0  0.79600  0.25000  0.66800  1.0000
