data_image0
_chemical_formula_structural       Ce3In3Ir3
_chemical_formula_sum              "Ce3 In3 Ir3"
_cell_length_a       7.68907
_cell_length_b       7.68907
_cell_length_c       4.12342
_cell_angle_alpha    90
_cell_angle_beta     90
_cell_angle_gamma    120

_space_group_name_H-M_alt    "P 1"
_space_group_IT_number       1

loop_
  _space_group_symop_operation_xyz
  'x, y, z'

loop_
  _atom_site_type_symbol
  _atom_site_label
  _atom_site_symmetry_multiplicity
  _atom_site_fract_x
  _atom_site_fract_y
  _atom_site_fract_z
  _atom_site_occupancy
  Ce  Ce1       1.0  0.58900  0.00000  0.00000  1.0000
  Ce  Ce2       1.0  0.41100  0.41100  0.00000  1.0000
  Ce  Ce3       1.0  0.00000  0.58900  0.00000  1.0000
  In  In1       1.0  0.24900  0.00000  0.50000  1.0000
  In  In2       1.0  0.00000  0.24900  0.50000  1.0000
  In  In3       1.0  0.75100  0.75100  0.50000  1.0000
  Ir  Ir1       1.0  0.00000  0.00000  0.00000  1.0000
  Ir  Ir2       1.0  0.66700  0.33300  0.50000  1.0000
  Ir  Ir3       1.0  0.33300  0.66700  0.50000  1.0000
