data_image0
_chemical_formula_structural       In3Rh3Tm3
_chemical_formula_sum              "In3 Rh3 Tm3"
_cell_length_a       7.50676
_cell_length_b       7.50676
_cell_length_c       3.8307
_cell_angle_alpha    90
_cell_angle_beta     90
_cell_angle_gamma    119.999

_space_group_name_H-M_alt    "P 1"
_space_group_IT_number       1

loop_
  _space_group_symop_operation_xyz
  'x, y, z'

loop_
  _atom_site_type_symbol
  _atom_site_label
  _atom_site_symmetry_multiplicity
  _atom_site_fract_x
  _atom_site_fract_y
  _atom_site_fract_z
  _atom_site_occupancy
  In  In1       1.0  0.74000  0.00001  0.00000  1.0000
  In  In2       1.0  0.26000  0.26000  0.00000  1.0000
  In  In3       1.0  0.00001  0.74000  0.00000  1.0000
  Rh  Rh1       1.0  0.66700  0.33300  0.00000  1.0000
  Rh  Rh2       1.0  0.33300  0.66700  0.00000  1.0000
  Rh  Rh3       1.0  0.00000  0.00000  0.50000  1.0000
  Tm  Tm1       1.0  0.40500  0.00000  0.50000  1.0000
  Tm  Tm2       1.0  0.00000  0.40500  0.50000  1.0000
  Tm  Tm3       1.0  0.59500  0.59500  0.50000  1.0000
