data_image0
_chemical_formula_structural       Ir3Np3Sn3
_chemical_formula_sum              "Ir3 Np3 Sn3"
_cell_length_a       7.4106
_cell_length_b       7.4106
_cell_length_c       4.02112
_cell_angle_alpha    90
_cell_angle_beta     90
_cell_angle_gamma    120

_space_group_name_H-M_alt    "P 1"
_space_group_IT_number       1

loop_
  _space_group_symop_operation_xyz
  'x, y, z'

loop_
  _atom_site_type_symbol
  _atom_site_label
  _atom_site_symmetry_multiplicity
  _atom_site_fract_x
  _atom_site_fract_y
  _atom_site_fract_z
  _atom_site_occupancy
  Ir  Ir1       1.0  0.66700  0.33300  0.00000  1.0000
  Ir  Ir2       1.0  0.33300  0.66700  0.00000  1.0000
  Ir  Ir3       1.0  0.00001  0.00000  0.50000  1.0000
  Np  Np1       1.0  0.58700  0.00001  0.50000  1.0000
  Np  Np2       1.0  0.41300  0.41300  0.50000  1.0000
  Np  Np3       1.0  0.00001  0.58700  0.50000  1.0000
  Sn  Sn1       1.0  0.25500  0.00001  0.00000  1.0000
  Sn  Sn2       1.0  0.00001  0.25500  0.00000  1.0000
  Sn  Sn3       1.0  0.74500  0.74500  0.00000  1.0000
