data_image0
_chemical_formula_structural       Ru2TbW2
_chemical_formula_sum              "Ru2 Tb1 W2"
_cell_length_a       6.01745
_cell_length_b       6.01745
_cell_length_c       6.01745
_cell_angle_alpha    137.836
_cell_angle_beta     137.836
_cell_angle_gamma    61.1539

_space_group_name_H-M_alt    "P 1"
_space_group_IT_number       1

loop_
  _space_group_symop_operation_xyz
  'x, y, z'

loop_
  _atom_site_type_symbol
  _atom_site_label
  _atom_site_symmetry_multiplicity
  _atom_site_fract_x
  _atom_site_fract_y
  _atom_site_fract_z
  _atom_site_occupancy
  Ru  Ru1       1.0  0.37400  0.37400  0.00000  1.0000
  Ru  Ru2       1.0  0.62600  0.62600  0.00000  1.0000
  Tb  Tb1       1.0  0.00000  0.00000  0.00000  1.0000
  W   W1        1.0  0.75000  0.25000  0.50000  1.0000
  W   W2        1.0  0.25000  0.75000  0.50000  1.0000
