# generated using pymatgen
data_Sr2NiTeO6
_symmetry_space_group_name_H-M   'P 1'
_cell_length_a   6.29575724
_cell_length_b   6.29575724
_cell_length_c   6.29575724
_cell_angle_alpha   128.44945161
_cell_angle_beta   128.04925151
_cell_angle_gamma   76.22188077
_symmetry_Int_Tables_number   1
_chemical_formula_structural   Sr2NiTeO6
_chemical_formula_sum   'Sr2 Ni1 Te1 O6'
_cell_volume   149.57837315
_cell_formula_units_Z   1
loop_
 _symmetry_equiv_pos_site_id
 _symmetry_equiv_pos_as_xyz
  1  'x, y, z'
loop_
 _atom_site_type_symbol
 _atom_site_label
 _atom_site_symmetry_multiplicity
 _atom_site_fract_x
 _atom_site_fract_y
 _atom_site_fract_z
 _atom_site_occupancy
  Sr  Sr0  1  0.30837400  0.30837400  0.00000000  1
  Sr  Sr1  1  0.69162600  0.69162600  0.00000000  1
  Ni  Ni2  1  0.00000000  0.00000000  0.00000000  1
  Te  Te3  1  0.00000000  0.50000000  0.50000000  1
  O  O4  1  0.75706100  0.75561800  0.51267900  1
  O  O5  1  0.24293900  0.24438200  0.48732100  1
  O  O6  1  0.80094500  0.30094500  0.50000000  1
  O  O7  1  0.75706100  0.24438200  0.00144300  1
  O  O8  1  0.24293900  0.75561800  0.99855700  1
  O  O9  1  0.19905500  0.69905500  0.50000000  1
