# generated using pymatgen
data_GdBO3
_symmetry_space_group_name_H-M   'P 1'
_cell_length_a   5.28102988
_cell_length_b   5.28102988
_cell_length_c   6.51839500
_cell_angle_alpha   90.00000000
_cell_angle_beta   90.00000000
_cell_angle_gamma   119.99999850
_symmetry_Int_Tables_number   1
_chemical_formula_structural   GdBO3
_chemical_formula_sum   'Gd2 B2 O6'
_cell_volume   157.43763671
_cell_formula_units_Z   2
loop_
 _symmetry_equiv_pos_site_id
 _symmetry_equiv_pos_as_xyz
  1  'x, y, z'
loop_
 _atom_site_type_symbol
 _atom_site_label
 _atom_site_symmetry_multiplicity
 _atom_site_fract_x
 _atom_site_fract_y
 _atom_site_fract_z
 _atom_site_occupancy
  Gd  Gd0  1  0.00000000  0.00000000  0.00000000  1
  Gd  Gd1  1  0.00000000  0.00000000  0.50000000  1
  B  B2  1  0.66666700  0.33333300  0.75000000  1
  B  B3  1  0.33333300  0.66666700  0.25000000  1
  O  O4  1  0.18166500  0.36333000  0.25000000  1
  O  O5  1  0.18166500  0.81833500  0.25000000  1
  O  O6  1  0.36333000  0.18166500  0.75000000  1
  O  O7  1  0.63667000  0.81833500  0.25000000  1
  O  O8  1  0.81833500  0.18166500  0.75000000  1
  O  O9  1  0.81833500  0.63667000  0.75000000  1
