# generated using pymatgen
data_Ac3Pa
_symmetry_space_group_name_H-M   'P 1'
_cell_length_a   7.64637612
_cell_length_b   7.64637612
_cell_length_c   6.20020600
_cell_angle_alpha   90.00000000
_cell_angle_beta   90.00000000
_cell_angle_gamma   120.00000103
_symmetry_Int_Tables_number   1
_chemical_formula_structural   Ac3Pa
_chemical_formula_sum   'Ac6 Pa2'
_cell_volume   313.94101627
_cell_formula_units_Z   2
loop_
 _symmetry_equiv_pos_site_id
 _symmetry_equiv_pos_as_xyz
  1  'x, y, z'
loop_
 _atom_site_type_symbol
 _atom_site_label
 _atom_site_symmetry_multiplicity
 _atom_site_fract_x
 _atom_site_fract_y
 _atom_site_fract_z
 _atom_site_occupancy
  Ac  Ac0  1  0.17198500  0.34397000  0.25000000  1
  Ac  Ac1  1  0.65603000  0.82801500  0.25000000  1
  Ac  Ac2  1  0.17198500  0.82801500  0.25000000  1
  Ac  Ac3  1  0.82801500  0.65603000  0.75000000  1
  Ac  Ac4  1  0.34397000  0.17198500  0.75000000  1
  Ac  Ac5  1  0.82801500  0.17198500  0.75000000  1
  Pa  Pa6  1  0.33333300  0.66666700  0.75000000  1
  Pa  Pa7  1  0.66666700  0.33333300  0.25000000  1
