# generated using pymatgen
data_Te4Mo2WSe2
_symmetry_space_group_name_H-M   'P 1'
_cell_length_a   3.47787156
_cell_length_b   3.47787156
_cell_length_c   31.97565900
_cell_angle_alpha   90.00000000
_cell_angle_beta   90.00000000
_cell_angle_gamma   119.99999171
_symmetry_Int_Tables_number   1
_chemical_formula_structural   Te4Mo2WSe2
_chemical_formula_sum   'Te4 Mo2 W1 Se2'
_cell_volume   334.94789380
_cell_formula_units_Z   1
loop_
 _symmetry_equiv_pos_site_id
 _symmetry_equiv_pos_as_xyz
  1  'x, y, z'
loop_
 _atom_site_type_symbol
 _atom_site_label
 _atom_site_symmetry_multiplicity
 _atom_site_fract_x
 _atom_site_fract_y
 _atom_site_fract_z
 _atom_site_occupancy
  Te  Te0  1  0.33333300  0.66666700  0.05812200  1
  Te  Te1  1  0.33333300  0.66666700  0.52037400  1
  Te  Te2  1  0.33333300  0.66666700  0.17320400  1
  Te  Te3  1  0.33333300  0.66666700  0.63623600  1
  Mo  Mo4  1  0.00000000  0.00000000  0.11565500  1
  Mo  Mo5  1  0.33333300  0.66666700  0.34697800  1
  W  W6  1  0.00000000  0.00000000  0.57831500  1
  Se  Se7  1  0.00000000  0.00000000  0.39776400  1
  Se  Se8  1  0.00000000  0.00000000  0.29619300  1
