# generated using pymatgen
data_MoW2(Se2S)2
_symmetry_space_group_name_H-M   'P 1'
_cell_length_a   3.27452712
_cell_length_b   3.27452712
_cell_length_c   30.21704800
_cell_angle_alpha   90.00000000
_cell_angle_beta   90.00000000
_cell_angle_gamma   120.00002272
_symmetry_Int_Tables_number   1
_chemical_formula_structural   MoW2(Se2S)2
_chemical_formula_sum   'Mo1 W2 Se4 S2'
_cell_volume   280.59488584
_cell_formula_units_Z   1
loop_
 _symmetry_equiv_pos_site_id
 _symmetry_equiv_pos_as_xyz
  1  'x, y, z'
loop_
 _atom_site_type_symbol
 _atom_site_label
 _atom_site_symmetry_multiplicity
 _atom_site_fract_x
 _atom_site_fract_y
 _atom_site_fract_z
 _atom_site_occupancy
  Mo  Mo0  1  0.00000000  0.00000000  0.11564600  1
  W  W1  1  0.00000000  0.00000000  0.57832100  1
  W  W2  1  0.33333300  0.66666700  0.34698500  1
  Se  Se3  1  0.33333300  0.66666700  0.05972800  1
  Se  Se4  1  0.33333300  0.66666700  0.52202100  1
  Se  Se5  1  0.33333300  0.66666700  0.17156700  1
  Se  Se6  1  0.33333300  0.66666700  0.63462500  1
  S  S7  1  0.00000000  0.00000000  0.39809400  1
  S  S8  1  0.00000000  0.00000000  0.29585400  1
