data_image0
_chemical_formula_structural       Ga6LaPd
_chemical_formula_sum              "Ga6 La1 Pd1"
_cell_length_a       4.4134
_cell_length_b       4.4134
_cell_length_c       7.96169
_cell_angle_alpha    90
_cell_angle_beta     90
_cell_angle_gamma    90

_space_group_name_H-M_alt    "P 1"
_space_group_IT_number       1

loop_
  _space_group_symop_operation_xyz
  'x, y, z'

loop_
  _atom_site_type_symbol
  _atom_site_label
  _atom_site_symmetry_multiplicity
  _atom_site_fract_x
  _atom_site_fract_y
  _atom_site_fract_z
  _atom_site_occupancy
  Ga  Ga1       1.0  0.50000  0.50000  0.15300  1.0000
  Ga  Ga2       1.0  0.50000  0.00000  0.32900  1.0000
  Ga  Ga3       1.0  0.00000  0.50000  0.32900  1.0000
  Ga  Ga4       1.0  0.50000  0.00000  0.67100  1.0000
  Ga  Ga5       1.0  0.00000  0.50000  0.67100  1.0000
  Ga  Ga6       1.0  0.50000  0.50000  0.84700  1.0000
  La  La1       1.0  0.00000  0.00000  0.00000  1.0000
  Pd  Pd1       1.0  0.00000  0.00000  0.50000  1.0000
