# generated using pymatgen
data_Mg(BiO2)2
_symmetry_space_group_name_H-M   'P 1'
_cell_length_a   6.74928926
_cell_length_b   6.74928926
_cell_length_c   6.74928926
_cell_angle_alpha   120.60498164
_cell_angle_beta   117.67985902
_cell_angle_gamma   91.51008880
_symmetry_Int_Tables_number   1
_chemical_formula_structural   Mg(BiO2)2
_chemical_formula_sum   'Mg2 Bi4 O8'
_cell_volume   219.96140126
_cell_formula_units_Z   2
loop_
 _symmetry_equiv_pos_site_id
 _symmetry_equiv_pos_as_xyz
  1  'x, y, z'
loop_
 _atom_site_type_symbol
 _atom_site_label
 _atom_site_symmetry_multiplicity
 _atom_site_fract_x
 _atom_site_fract_y
 _atom_site_fract_z
 _atom_site_occupancy
  Mg  Mg0  1  0.00000000  0.50000000  0.00000000  1
  Mg  Mg1  1  0.00000000  0.00000000  0.50000000  1
  Bi  Bi2  1  0.62211500  0.87211500  0.75000000  1
  Bi  Bi3  1  0.37788500  0.12788500  0.25000000  1
  Bi  Bi4  1  0.00000000  0.50000000  0.50000000  1
  Bi  Bi5  1  0.50000000  0.50000000  0.00000000  1
  O  O6  1  0.79084000  0.25064800  0.54019100  1
  O  O7  1  0.22972800  0.72128500  0.99155600  1
  O  O8  1  0.21045700  0.25064800  0.95980900  1
  O  O9  1  0.22972800  0.23817200  0.50844400  1
  O  O10  1  0.77027200  0.76182800  0.49155600  1
  O  O11  1  0.77027200  0.27871500  0.00844400  1
  O  O12  1  0.78954300  0.74935200  0.04019100  1
  O  O13  1  0.20916000  0.74935200  0.45980900  1
