# generated using pymatgen
data_Ba2CdAg
_symmetry_space_group_name_H-M   'P 1'
_cell_length_a   13.99572583
_cell_length_b   13.99572583
_cell_length_c   13.99572583
_cell_angle_alpha   120.34723380
_cell_angle_beta   118.75852292
_cell_angle_gamma   90.78163022
_symmetry_Int_Tables_number   1
_chemical_formula_structural   Ba2CdAg
_chemical_formula_sum   'Ba2 Cd1 Ag1'
_cell_volume   1950.96775379
_cell_formula_units_Z   1
loop_
 _symmetry_equiv_pos_site_id
 _symmetry_equiv_pos_as_xyz
  1  'x, y, z'
loop_
 _atom_site_type_symbol
 _atom_site_label
 _atom_site_symmetry_multiplicity
 _atom_site_fract_x
 _atom_site_fract_y
 _atom_site_fract_z
 _atom_site_occupancy
  Ba  Ba0  1  0.76630200  0.00000000  0.76630200  1
  Ba  Ba1  1  0.23369800  0.00000000  0.23369800  1
  Cd  Cd2  1  0.50000000  0.00000000  0.50000000  1
  Ag  Ag3  1  0.00000000  0.00000000  0.00000000  1
