# generated using pymatgen
data_Nb10Ge7
_symmetry_space_group_name_H-M   'P 1'
_cell_length_a   13.55556418
_cell_length_b   13.55556418
_cell_length_c   5.46614800
_cell_angle_alpha   90.00000000
_cell_angle_beta   90.00000000
_cell_angle_gamma   120.00000090
_symmetry_Int_Tables_number   1
_chemical_formula_structural   Nb10Ge7
_chemical_formula_sum   'Nb30 Ge21'
_cell_volume   869.85569168
_cell_formula_units_Z   3
loop_
 _symmetry_equiv_pos_site_id
 _symmetry_equiv_pos_as_xyz
  1  'x, y, z'
loop_
 _atom_site_type_symbol
 _atom_site_label
 _atom_site_symmetry_multiplicity
 _atom_site_fract_x
 _atom_site_fract_y
 _atom_site_fract_z
 _atom_site_occupancy
  Nb  Nb0  1  0.82524100  0.91262100  0.72864300  1
  Nb  Nb1  1  0.08737900  0.17475900  0.72864300  1
  Nb  Nb2  1  0.08737900  0.91262100  0.72864300  1
  Nb  Nb3  1  0.17475900  0.08737900  0.27135700  1
  Nb  Nb4  1  0.91262100  0.82524100  0.27135700  1
  Nb  Nb5  1  0.91262100  0.08737900  0.27135700  1
  Nb  Nb6  1  0.15934100  0.57967000  0.77334100  1
  Nb  Nb7  1  0.42033000  0.84065900  0.77334100  1
  Nb  Nb8  1  0.42033000  0.57967000  0.77334100  1
  Nb  Nb9  1  0.84065900  0.42033000  0.22665900  1
  Nb  Nb10  1  0.57967000  0.15934100  0.22665900  1
  Nb  Nb11  1  0.57967000  0.42033000  0.22665900  1
  Nb  Nb12  1  0.49121700  0.24560900  0.76767500  1
  Nb  Nb13  1  0.75439100  0.50878300  0.76767500  1
  Nb  Nb14  1  0.75439100  0.24560900  0.76767500  1
  Nb  Nb15  1  0.50878300  0.75439100  0.23232500  1
  Nb  Nb16  1  0.24560900  0.49121700  0.23232500  1
  Nb  Nb17  1  0.24560900  0.75439100  0.23232500  1
  Nb  Nb18  1  0.33641500  0.00000000  0.50000000  1
  Nb  Nb19  1  0.66358500  0.66358500  0.50000000  1
  Nb  Nb20  1  0.00000000  0.33641500  0.50000000  1
  Nb  Nb21  1  0.33641500  0.33641500  0.50000000  1
  Nb  Nb22  1  0.00000000  0.66358500  0.50000000  1
  Nb  Nb23  1  0.66358500  0.00000000  0.50000000  1
  Nb  Nb24  1  0.33092200  0.00000000  0.00000000  1
  Nb  Nb25  1  0.66907800  0.66907800  0.00000000  1
  Nb  Nb26  1  0.00000000  0.33092200  0.00000000  1
  Nb  Nb27  1  0.33092200  0.33092200  0.00000000  1
  Nb  Nb28  1  0.00000000  0.66907800  0.00000000  1
  Nb  Nb29  1  0.66907800  0.00000000  0.00000000  1
  Ge  Ge30  1  0.59394300  0.79697200  0.74658600  1
  Ge  Ge31  1  0.20302800  0.40605700  0.74658600  1
  Ge  Ge32  1  0.20302800  0.79697200  0.74658600  1
  Ge  Ge33  1  0.40605700  0.20302800  0.25341400  1
  Ge  Ge34  1  0.79697200  0.59394300  0.25341400  1
  Ge  Ge35  1  0.79697200  0.20302800  0.25341400  1
  Ge  Ge36  1  0.92688600  0.46344300  0.75378800  1
  Ge  Ge37  1  0.53655700  0.07311400  0.75378800  1
  Ge  Ge38  1  0.53655700  0.46344300  0.75378800  1
  Ge  Ge39  1  0.07311400  0.53655700  0.24621200  1
  Ge  Ge40  1  0.46344300  0.92688600  0.24621200  1
  Ge  Ge41  1  0.46344300  0.53655700  0.24621200  1
  Ge  Ge42  1  0.26028100  0.13014100  0.74729900  1
  Ge  Ge43  1  0.86985900  0.73971900  0.74729900  1
  Ge  Ge44  1  0.86985900  0.13014100  0.74729900  1
  Ge  Ge45  1  0.73971900  0.86985900  0.25270100  1
  Ge  Ge46  1  0.13014100  0.26028100  0.25270100  1
  Ge  Ge47  1  0.13014100  0.86985900  0.25270100  1
  Ge  Ge48  1  0.66666700  0.33333300  0.49952600  1
  Ge  Ge49  1  0.33333300  0.66666700  0.50047400  1
  Ge  Ge50  1  0.00000000  0.00000000  0.00000000  1
