# generated using pymatgen
data_Ni(BrO6)2
_symmetry_space_group_name_H-M   'P 1'
_cell_length_a   9.55484900
_cell_length_b   9.55484900
_cell_length_c   9.55484900
_cell_angle_alpha   90.00000000
_cell_angle_beta   90.00000000
_cell_angle_gamma   90.00000000
_symmetry_Int_Tables_number   1
_chemical_formula_structural   Ni(BrO6)2
_chemical_formula_sum   'Ni4 Br8 O48'
_cell_volume   872.31127152
_cell_formula_units_Z   4
loop_
 _symmetry_equiv_pos_site_id
 _symmetry_equiv_pos_as_xyz
  1  'x, y, z'
loop_
 _atom_site_type_symbol
 _atom_site_label
 _atom_site_symmetry_multiplicity
 _atom_site_fract_x
 _atom_site_fract_y
 _atom_site_fract_z
 _atom_site_occupancy
  Ni  Ni0  1  0.00000000  0.00000000  0.00000000  1
  Ni  Ni1  1  0.50000000  0.00000000  0.50000000  1
  Ni  Ni2  1  0.00000000  0.50000000  0.50000000  1
  Ni  Ni3  1  0.50000000  0.50000000  0.00000000  1
  Br  Br4  1  0.26349000  0.26349000  0.26349000  1
  Br  Br5  1  0.73651000  0.73651000  0.73651000  1
  Br  Br6  1  0.23651000  0.73651000  0.76349000  1
  Br  Br7  1  0.73651000  0.76349000  0.23651000  1
  Br  Br8  1  0.76349000  0.26349000  0.23651000  1
  Br  Br9  1  0.26349000  0.23651000  0.76349000  1
  Br  Br10  1  0.76349000  0.23651000  0.73651000  1
  Br  Br11  1  0.23651000  0.76349000  0.26349000  1
  O  O12  1  0.12282200  0.34460800  0.18903900  1
  O  O13  1  0.87717800  0.65539200  0.81096100  1
  O  O14  1  0.37717800  0.65539200  0.68903900  1
  O  O15  1  0.87717800  0.84460800  0.31096100  1
  O  O16  1  0.18903900  0.12282200  0.34460800  1
  O  O17  1  0.62282200  0.34460800  0.31096100  1
  O  O18  1  0.12282200  0.15539200  0.68903900  1
  O  O19  1  0.81096100  0.87717800  0.65539200  1
  O  O20  1  0.62282200  0.15539200  0.81096100  1
  O  O21  1  0.68903900  0.37717800  0.65539200  1
  O  O22  1  0.37717800  0.84460800  0.18903900  1
  O  O23  1  0.31096100  0.62282200  0.34460800  1
  O  O24  1  0.31096100  0.87717800  0.84460800  1
  O  O25  1  0.68903900  0.12282200  0.15539200  1
  O  O26  1  0.81096100  0.62282200  0.15539200  1
  O  O27  1  0.18903900  0.37717800  0.84460800  1
  O  O28  1  0.34460800  0.18903900  0.12282200  1
  O  O29  1  0.65539200  0.81096100  0.87717800  1
  O  O30  1  0.84460800  0.31096100  0.87717800  1
  O  O31  1  0.15539200  0.68903900  0.12282200  1
  O  O32  1  0.15539200  0.81096100  0.62282200  1
  O  O33  1  0.84460800  0.18903900  0.37717800  1
  O  O34  1  0.65539200  0.68903900  0.37717800  1
  O  O35  1  0.34460800  0.31096100  0.62282200  1
  O  O36  1  0.18015600  0.44973500  0.46592300  1
  O  O37  1  0.81984400  0.55026500  0.53407700  1
  O  O38  1  0.31984400  0.55026500  0.96592300  1
  O  O39  1  0.81984400  0.94973500  0.03407700  1
  O  O40  1  0.46592300  0.18015600  0.44973500  1
  O  O41  1  0.68015600  0.44973500  0.03407700  1
  O  O42  1  0.18015600  0.05026500  0.96592300  1
  O  O43  1  0.53407700  0.81984400  0.55026500  1
  O  O44  1  0.68015600  0.05026500  0.53407700  1
  O  O45  1  0.96592300  0.31984400  0.55026500  1
  O  O46  1  0.31984400  0.94973500  0.46592300  1
  O  O47  1  0.03407700  0.68015600  0.44973500  1
  O  O48  1  0.03407700  0.81984400  0.94973500  1
  O  O49  1  0.96592300  0.18015600  0.05026500  1
  O  O50  1  0.53407700  0.68015600  0.05026500  1
  O  O51  1  0.46592300  0.31984400  0.94973500  1
  O  O52  1  0.44973500  0.46592300  0.18015600  1
  O  O53  1  0.55026500  0.53407700  0.81984400  1
  O  O54  1  0.94973500  0.03407700  0.81984400  1
  O  O55  1  0.05026500  0.96592300  0.18015600  1
  O  O56  1  0.05026500  0.53407700  0.68015600  1
  O  O57  1  0.94973500  0.46592300  0.31984400  1
  O  O58  1  0.55026500  0.96592300  0.31984400  1
  O  O59  1  0.44973500  0.03407700  0.68015600  1
