data_image0
_chemical_formula_structural       Cu2MnS4Sn
_chemical_formula_sum              "Cu2 Mn1 S4 Sn1"
_cell_length_a       5.50448
_cell_length_b       5.50448
_cell_length_c       6.66737
_cell_angle_alpha    114.38
_cell_angle_beta     114.38
_cell_angle_gamma    90

_space_group_name_H-M_alt    "P 1"
_space_group_IT_number       1

loop_
  _space_group_symop_operation_xyz
  'x, y, z'

loop_
  _atom_site_type_symbol
  _atom_site_label
  _atom_site_symmetry_multiplicity
  _atom_site_fract_x
  _atom_site_fract_y
  _atom_site_fract_z
  _atom_site_occupancy
  Cu  Cu1       1.0  0.75000  0.25000  0.50000  1.0000
  Cu  Cu2       1.0  0.25000  0.75000  0.50000  1.0000
  Mn  Mn1       1.0  0.50000  0.50000  0.00000  1.0000
  S   S1        1.0  0.87800  0.39000  0.26900  1.0000
  S   S2        1.0  0.39000  0.87800  0.26900  1.0000
  S   S3        1.0  0.12200  0.12200  0.73100  1.0000
  S   S4        1.0  0.61000  0.61000  0.73100  1.0000
  Sn  Sn1       1.0  0.00000  0.00000  0.00000  1.0000
