# generated using pymatgen
data_Sm(VFe5)2
_symmetry_space_group_name_H-M   'P 1'
_cell_length_a   4.68069100
_cell_length_b   6.46073840
_cell_length_c   6.46073840
_cell_angle_alpha   97.17422317
_cell_angle_beta   111.23789374
_cell_angle_gamma   68.76210626
_symmetry_Int_Tables_number   1
_chemical_formula_structural   Sm(VFe5)2
_chemical_formula_sum   'Sm1 V2 Fe10'
_cell_volume   169.73572377
_cell_formula_units_Z   1
loop_
 _symmetry_equiv_pos_site_id
 _symmetry_equiv_pos_as_xyz
  1  'x, y, z'
loop_
 _atom_site_type_symbol
 _atom_site_label
 _atom_site_symmetry_multiplicity
 _atom_site_fract_x
 _atom_site_fract_y
 _atom_site_fract_z
 _atom_site_occupancy
  Sm  Sm0  1  0.00000000  0.00000000  0.00000000  1
  V  V1  1  0.00000000  0.35945000  0.35945000  1
  V  V2  1  0.00000000  0.64055000  0.64055000  1
  Fe  Fe3  1  0.72816300  0.77183700  0.22816300  1
  Fe  Fe4  1  0.27183700  0.22816300  0.77183700  1
  Fe  Fe5  1  0.50000000  0.76882700  0.76882700  1
  Fe  Fe6  1  0.50000000  0.23117300  0.23117300  1
  Fe  Fe7  1  0.50000000  0.00000000  0.50000000  1
  Fe  Fe8  1  0.00000000  0.00000000  0.50000000  1
  Fe  Fe9  1  0.50000000  0.50000000  0.00000000  1
  Fe  Fe10  1  0.00000000  0.50000000  0.00000000  1
  Fe  Fe11  1  0.64004400  0.35995600  0.64004400  1
  Fe  Fe12  1  0.35995600  0.64004400  0.35995600  1
