data_image0
_chemical_formula_structural       C3Cr2Er2
_chemical_formula_sum              "C3 Cr2 Er2"
_cell_length_a       3.33665
_cell_length_b       5.47495
_cell_length_c       5.51152
_cell_angle_alpha    105.326
_cell_angle_beta     90
_cell_angle_gamma    107.741

_space_group_name_H-M_alt    "P 1"
_space_group_IT_number       1

loop_
  _space_group_symop_operation_xyz
  'x, y, z'

loop_
  _atom_site_type_symbol
  _atom_site_label
  _atom_site_symmetry_multiplicity
  _atom_site_fract_x
  _atom_site_fract_y
  _atom_site_fract_z
  _atom_site_occupancy
  C   C1        1.0  0.71800  0.43500  0.26700  1.0000
  C   C2        1.0  0.00000  0.00000  0.50000  1.0000
  C   C3        1.0  0.28200  0.56500  0.73300  1.0000
  Cr  Cr1       1.0  0.15600  0.31200  0.38800  1.0000
  Cr  Cr2       1.0  0.84400  0.68800  0.61200  1.0000
  Er  Er1       1.0  0.39300  0.78500  0.18400  1.0000
  Er  Er2       1.0  0.60700  0.21500  0.81600  1.0000
