# generated using pymatgen
data_Ce3SnO8
_symmetry_space_group_name_H-M   'P 1'
_cell_length_a   3.81441100
_cell_length_b   3.81441100
_cell_length_c   10.82418200
_cell_angle_alpha   90.00000000
_cell_angle_beta   90.00000000
_cell_angle_gamma   90.00000000
_symmetry_Int_Tables_number   1
_chemical_formula_structural   Ce3SnO8
_chemical_formula_sum   'Ce3 Sn1 O8'
_cell_volume   157.48893939
_cell_formula_units_Z   1
loop_
 _symmetry_equiv_pos_site_id
 _symmetry_equiv_pos_as_xyz
  1  'x, y, z'
loop_
 _atom_site_type_symbol
 _atom_site_label
 _atom_site_symmetry_multiplicity
 _atom_site_fract_x
 _atom_site_fract_y
 _atom_site_fract_z
 _atom_site_occupancy
  Ce  Ce0  1  0.50000000  0.50000000  0.75412900  1
  Ce  Ce1  1  0.00000000  0.00000000  0.50000000  1
  Ce  Ce2  1  0.50000000  0.50000000  0.24587100  1
  Sn  Sn3  1  0.00000000  0.00000000  0.00000000  1
  O  O4  1  0.50000000  0.00000000  0.37256100  1
  O  O5  1  0.00000000  0.50000000  0.11679600  1
  O  O6  1  0.50000000  0.00000000  0.88320400  1
  O  O7  1  0.00000000  0.50000000  0.62743900  1
  O  O8  1  0.50000000  0.00000000  0.11679600  1
  O  O9  1  0.00000000  0.50000000  0.88320400  1
  O  O10  1  0.50000000  0.00000000  0.62743900  1
  O  O11  1  0.00000000  0.50000000  0.37256100  1
