data_image0
_chemical_formula_structural       Al2Pd5Pu
_chemical_formula_sum              "Al2 Pd5 Pu1"
_cell_length_a       4.16181
_cell_length_b       4.16181
_cell_length_c       8.04714
_cell_angle_alpha    104.986
_cell_angle_beta     104.986
_cell_angle_gamma    90

_space_group_name_H-M_alt    "P 1"
_space_group_IT_number       1

loop_
  _space_group_symop_operation_xyz
  'x, y, z'

loop_
  _atom_site_type_symbol
  _atom_site_label
  _atom_site_symmetry_multiplicity
  _atom_site_fract_x
  _atom_site_fract_y
  _atom_site_fract_z
  _atom_site_occupancy
  Al  Al1       1.0  0.74800  0.74800  0.49500  1.0000
  Al  Al2       1.0  0.25200  0.25200  0.50500  1.0000
  Pd  Pd1       1.0  0.50000  0.50000  0.00000  1.0000
  Pd  Pd2       1.0  0.64600  0.14600  0.29100  1.0000
  Pd  Pd3       1.0  0.14600  0.64600  0.29100  1.0000
  Pd  Pd4       1.0  0.85400  0.35400  0.70900  1.0000
  Pd  Pd5       1.0  0.35400  0.85400  0.70900  1.0000
  Pu  Pu1       1.0  0.00000  0.00000  0.00000  1.0000
