# generated using pymatgen
data_CdI2
_symmetry_space_group_name_H-M   'P 1'
_cell_length_a   4.33255328
_cell_length_b   4.33255328
_cell_length_c   59.26567500
_cell_angle_alpha   90.00000000
_cell_angle_beta   90.00000000
_cell_angle_gamma   119.99998906
_symmetry_Int_Tables_number   1
_chemical_formula_structural   CdI2
_chemical_formula_sum   'Cd8 I16'
_cell_volume   963.43349223
_cell_formula_units_Z   8
loop_
 _symmetry_equiv_pos_site_id
 _symmetry_equiv_pos_as_xyz
  1  'x, y, z'
loop_
 _atom_site_type_symbol
 _atom_site_label
 _atom_site_symmetry_multiplicity
 _atom_site_fract_x
 _atom_site_fract_y
 _atom_site_fract_z
 _atom_site_occupancy
  Cd  Cd0  1  0.66666700  0.33333300  0.90625000  1
  Cd  Cd1  1  0.66666700  0.33333300  0.78126300  1
  Cd  Cd2  1  0.66666700  0.33333300  0.53126000  1
  Cd  Cd3  1  0.66666700  0.33333300  0.15625200  1
  Cd  Cd4  1  0.33333300  0.66666700  0.03126000  1
  Cd  Cd5  1  0.33333300  0.66666700  0.40625000  1
  Cd  Cd6  1  0.33333300  0.66666700  0.65625200  1
  Cd  Cd7  1  0.33333300  0.66666700  0.28126300  1
  I  I8  1  0.33333300  0.66666700  0.75212000  1
  I  I9  1  0.33333300  0.66666700  0.50212000  1
  I  I10  1  0.00000000  0.00000000  0.43537000  1
  I  I11  1  0.33333300  0.66666700  0.12711100  1
  I  I12  1  0.00000000  0.00000000  0.18537900  1
  I  I13  1  0.00000000  0.00000000  0.31038600  1
  I  I14  1  0.00000000  0.00000000  0.93537000  1
  I  I15  1  0.66666700  0.33333300  0.62711100  1
  I  I16  1  0.66666700  0.33333300  0.00212000  1
  I  I17  1  0.00000000  0.00000000  0.06037900  1
  I  I18  1  0.33333300  0.66666700  0.87711200  1
  I  I19  1  0.00000000  0.00000000  0.81038600  1
  I  I20  1  0.66666700  0.33333300  0.37711200  1
  I  I21  1  0.66666700  0.33333300  0.25212000  1
  I  I22  1  0.00000000  0.00000000  0.56037900  1
  I  I23  1  0.00000000  0.00000000  0.68537900  1
