# generated using pymatgen
data_Yb2Mg
_symmetry_space_group_name_H-M   'P 1'
_cell_length_a   9.51177027
_cell_length_b   9.51177027
_cell_length_c   5.91586300
_cell_angle_alpha   90.00000000
_cell_angle_beta   90.00000000
_cell_angle_gamma   157.45815306
_symmetry_Int_Tables_number   1
_chemical_formula_structural   Yb2Mg
_chemical_formula_sum   'Yb4 Mg2'
_cell_volume   205.18492931
_cell_formula_units_Z   2
loop_
 _symmetry_equiv_pos_site_id
 _symmetry_equiv_pos_as_xyz
  1  'x, y, z'
loop_
 _atom_site_type_symbol
 _atom_site_label
 _atom_site_symmetry_multiplicity
 _atom_site_fract_x
 _atom_site_fract_y
 _atom_site_fract_z
 _atom_site_occupancy
  Yb  Yb0  1  0.59272200  0.40727800  0.75000000  1
  Yb  Yb1  1  0.28116900  0.71883100  0.75000000  1
  Yb  Yb2  1  0.40727800  0.59272200  0.25000000  1
  Yb  Yb3  1  0.71883100  0.28116900  0.25000000  1
  Mg  Mg4  1  0.93847700  0.06152300  0.75000000  1
  Mg  Mg5  1  0.06152300  0.93847700  0.25000000  1
