# generated using pymatgen
data_MoWSe3S
_symmetry_space_group_name_H-M   'P 1'
_cell_length_a   3.29126020
_cell_length_b   3.29126020
_cell_length_c   36.94162700
_cell_angle_alpha   90.00000000
_cell_angle_beta   90.00000000
_cell_angle_gamma   120.00000400
_symmetry_Int_Tables_number   1
_chemical_formula_structural   MoWSe3S
_chemical_formula_sum   'Mo2 W2 Se6 S2'
_cell_volume   346.55412207
_cell_formula_units_Z   2
loop_
 _symmetry_equiv_pos_site_id
 _symmetry_equiv_pos_as_xyz
  1  'x, y, z'
loop_
 _atom_site_type_symbol
 _atom_site_label
 _atom_site_symmetry_multiplicity
 _atom_site_fract_x
 _atom_site_fract_y
 _atom_site_fract_z
 _atom_site_occupancy
  Mo  Mo0  1  0.00000000  0.00000000  0.09341600  1
  Mo  Mo1  1  0.00000000  0.00000000  0.47092800  1
  W  W2  1  0.33333300  0.66666700  0.28141800  1
  W  W3  1  0.33333300  0.66666700  0.65715600  1
  Se  Se4  1  0.00000000  0.00000000  0.32729500  1
  Se  Se5  1  0.00000000  0.00000000  0.70302400  1
  Se  Se6  1  0.33333300  0.66666700  0.04776400  1
  Se  Se7  1  0.33333300  0.66666700  0.13906300  1
  Se  Se8  1  0.00000000  0.00000000  0.23554200  1
  Se  Se9  1  0.00000000  0.00000000  0.61128300  1
  S  S10  1  0.33333300  0.66666700  0.42941000  1
  S  S11  1  0.33333300  0.66666700  0.51244900  1
