# generated using pymatgen
data_RbMg14CO16
_symmetry_space_group_name_H-M   'P 1'
_cell_length_a   4.58033500
_cell_length_b   8.14622800
_cell_length_c   9.15501300
_cell_angle_alpha   90.00000000
_cell_angle_beta   90.00000000
_cell_angle_gamma   90.00000000
_symmetry_Int_Tables_number   1
_chemical_formula_structural   RbMg14CO16
_chemical_formula_sum   'Rb1 Mg14 C1 O16'
_cell_volume   341.59599435
_cell_formula_units_Z   1
loop_
 _symmetry_equiv_pos_site_id
 _symmetry_equiv_pos_as_xyz
  1  'x, y, z'
loop_
 _atom_site_type_symbol
 _atom_site_label
 _atom_site_symmetry_multiplicity
 _atom_site_fract_x
 _atom_site_fract_y
 _atom_site_fract_z
 _atom_site_occupancy
  Rb  Rb0  1  0.00000000  0.00000000  0.00000000  1
  Mg  Mg1  1  0.00000000  0.00000000  0.50000000  1
  Mg  Mg2  1  0.00000000  0.50000000  0.50000000  1
  Mg  Mg3  1  0.50000000  0.74182800  0.00000000  1
  Mg  Mg4  1  0.50000000  0.25817200  0.00000000  1
  Mg  Mg5  1  0.50000000  0.74834400  0.50000000  1
  Mg  Mg6  1  0.50000000  0.25165600  0.50000000  1
  Mg  Mg7  1  0.50000000  0.00000000  0.74304300  1
  Mg  Mg8  1  0.50000000  0.50000000  0.75194000  1
  Mg  Mg9  1  0.50000000  0.00000000  0.25695700  1
  Mg  Mg10  1  0.50000000  0.50000000  0.24806000  1
  Mg  Mg11  1  0.00000000  0.74551200  0.72533600  1
  Mg  Mg12  1  0.00000000  0.25448800  0.72533600  1
  Mg  Mg13  1  0.00000000  0.74551200  0.27466400  1
  Mg  Mg14  1  0.00000000  0.25448800  0.27466400  1
  C  C15  1  0.00000000  0.50000000  0.00000000  1
  O  O16  1  0.00000000  0.00000000  0.72057400  1
  O  O17  1  0.00000000  0.50000000  0.72083200  1
  O  O18  1  0.00000000  0.00000000  0.27942600  1
  O  O19  1  0.00000000  0.50000000  0.27916800  1
  O  O20  1  0.50000000  0.75059200  0.75490900  1
  O  O21  1  0.50000000  0.24940800  0.75490900  1
  O  O22  1  0.50000000  0.75059200  0.24509100  1
  O  O23  1  0.50000000  0.24940800  0.24509100  1
  O  O24  1  0.50000000  0.00000000  0.00000000  1
  O  O25  1  0.50000000  0.50000000  0.00000000  1
  O  O26  1  0.50000000  0.00000000  0.50000000  1
  O  O27  1  0.50000000  0.50000000  0.50000000  1
  O  O28  1  0.00000000  0.65913000  0.00000000  1
  O  O29  1  0.00000000  0.34087000  0.00000000  1
  O  O30  1  0.00000000  0.75023300  0.50000000  1
  O  O31  1  0.00000000  0.24976700  0.50000000  1
