# generated using pymatgen
data_Mg30CoCuO32
_symmetry_space_group_name_H-M   'P 1'
_cell_length_a   8.50737300
_cell_length_b   8.50737300
_cell_length_c   8.50240000
_cell_angle_alpha   90.00000000
_cell_angle_beta   90.00000000
_cell_angle_gamma   90.00000000
_symmetry_Int_Tables_number   1
_chemical_formula_structural   Mg30CoCuO32
_chemical_formula_sum   'Mg30 Co1 Cu1 O32'
_cell_volume   615.36456152
_cell_formula_units_Z   1
loop_
 _symmetry_equiv_pos_site_id
 _symmetry_equiv_pos_as_xyz
  1  'x, y, z'
loop_
 _atom_site_type_symbol
 _atom_site_label
 _atom_site_symmetry_multiplicity
 _atom_site_fract_x
 _atom_site_fract_y
 _atom_site_fract_z
 _atom_site_occupancy
  Mg  Mg0  1  0.00000000  0.50000000  0.00000000  1
  Mg  Mg1  1  0.00000000  0.50000000  0.50000000  1
  Mg  Mg2  1  0.50000000  0.00000000  0.00000000  1
  Mg  Mg3  1  0.50000000  0.00000000  0.50000000  1
  Mg  Mg4  1  0.50000000  0.50000000  0.00000000  1
  Mg  Mg5  1  0.50000000  0.50000000  0.50000000  1
  Mg  Mg6  1  0.00000000  0.24700800  0.24875200  1
  Mg  Mg7  1  0.00000000  0.24700800  0.75124800  1
  Mg  Mg8  1  0.00000000  0.75299200  0.24875200  1
  Mg  Mg9  1  0.00000000  0.75299200  0.75124800  1
  Mg  Mg10  1  0.50000000  0.24917700  0.25030800  1
  Mg  Mg11  1  0.50000000  0.24917700  0.74969200  1
  Mg  Mg12  1  0.50000000  0.75082300  0.25030800  1
  Mg  Mg13  1  0.50000000  0.75082300  0.74969200  1
  Mg  Mg14  1  0.24700800  0.00000000  0.24875200  1
  Mg  Mg15  1  0.24700800  0.00000000  0.75124800  1
  Mg  Mg16  1  0.24917700  0.50000000  0.25030800  1
  Mg  Mg17  1  0.24917700  0.50000000  0.74969200  1
  Mg  Mg18  1  0.75299200  0.00000000  0.24875200  1
  Mg  Mg19  1  0.75299200  0.00000000  0.75124800  1
  Mg  Mg20  1  0.75082300  0.50000000  0.25030800  1
  Mg  Mg21  1  0.75082300  0.50000000  0.74969200  1
  Mg  Mg22  1  0.24877300  0.24877300  0.00000000  1
  Mg  Mg23  1  0.24800100  0.24800100  0.50000000  1
  Mg  Mg24  1  0.24877300  0.75122700  0.00000000  1
  Mg  Mg25  1  0.24800100  0.75199900  0.50000000  1
  Mg  Mg26  1  0.75122700  0.24877300  0.00000000  1
  Mg  Mg27  1  0.75199900  0.24800100  0.50000000  1
  Mg  Mg28  1  0.75122700  0.75122700  0.00000000  1
  Mg  Mg29  1  0.75199900  0.75199900  0.50000000  1
  Co  Co30  1  0.00000000  0.00000000  0.50000000  1
  Cu  Cu31  1  0.00000000  0.00000000  0.00000000  1
  O  O32  1  0.25844200  0.00000000  0.00000000  1
  O  O33  1  0.23999400  0.00000000  0.50000000  1
  O  O34  1  0.25058700  0.50000000  0.00000000  1
  O  O35  1  0.24761800  0.50000000  0.50000000  1
  O  O36  1  0.74155800  0.00000000  0.00000000  1
  O  O37  1  0.76000600  0.00000000  0.50000000  1
  O  O38  1  0.74941300  0.50000000  0.00000000  1
  O  O39  1  0.75238200  0.50000000  0.50000000  1
  O  O40  1  0.24939400  0.24939400  0.25078800  1
  O  O41  1  0.24939400  0.24939400  0.74921200  1
  O  O42  1  0.24939400  0.75060600  0.25078800  1
  O  O43  1  0.24939400  0.75060600  0.74921200  1
  O  O44  1  0.75060600  0.24939400  0.25078800  1
  O  O45  1  0.75060600  0.24939400  0.74921200  1
  O  O46  1  0.75060600  0.75060600  0.25078800  1
  O  O47  1  0.75060600  0.75060600  0.74921200  1
  O  O48  1  0.00000000  0.00000000  0.24191300  1
  O  O49  1  0.00000000  0.00000000  0.75808700  1
  O  O50  1  0.00000000  0.50000000  0.25453900  1
  O  O51  1  0.00000000  0.50000000  0.74546100  1
  O  O52  1  0.50000000  0.00000000  0.25453900  1
  O  O53  1  0.50000000  0.00000000  0.74546100  1
  O  O54  1  0.50000000  0.50000000  0.25169800  1
  O  O55  1  0.50000000  0.50000000  0.74830200  1
  O  O56  1  0.00000000  0.25844200  0.00000000  1
  O  O57  1  0.00000000  0.23999400  0.50000000  1
  O  O58  1  0.00000000  0.74155800  0.00000000  1
  O  O59  1  0.00000000  0.76000600  0.50000000  1
  O  O60  1  0.50000000  0.25058700  0.00000000  1
  O  O61  1  0.50000000  0.24761800  0.50000000  1
  O  O62  1  0.50000000  0.74941300  0.00000000  1
  O  O63  1  0.50000000  0.75238200  0.50000000  1
