# generated using pymatgen
data_Sc
_symmetry_space_group_name_H-M   'P 1'
_cell_length_a   5.42267600
_cell_length_b   5.42267600
_cell_length_c   3.43520600
_cell_angle_alpha   90.00000000
_cell_angle_beta   90.00000000
_cell_angle_gamma   90.00000000
_symmetry_Int_Tables_number   1
_chemical_formula_structural   Sc
_chemical_formula_sum   Sc4
_cell_volume   101.01365804
_cell_formula_units_Z   4
loop_
 _symmetry_equiv_pos_site_id
 _symmetry_equiv_pos_as_xyz
  1  'x, y, z'
loop_
 _atom_site_type_symbol
 _atom_site_label
 _atom_site_symmetry_multiplicity
 _atom_site_fract_x
 _atom_site_fract_y
 _atom_site_fract_z
 _atom_site_occupancy
  Sc  Sc0  1  0.50000000  0.50000000  0.00000000  1
  Sc  Sc1  1  0.00000000  0.00000000  0.00000000  1
  Sc  Sc2  1  0.50000000  0.00000000  0.53266400  1
  Sc  Sc3  1  0.00000000  0.50000000  0.46733600  1
