# generated using pymatgen
data_As4HN2(ClO3)2
_symmetry_space_group_name_H-M   'P 1'
_cell_length_a   5.32622015
_cell_length_b   5.32622015
_cell_length_c   11.84312700
_cell_angle_alpha   90.00000000
_cell_angle_beta   90.00000000
_cell_angle_gamma   120.00000187
_symmetry_Int_Tables_number   1
_chemical_formula_structural   As4HN2(ClO3)2
_chemical_formula_sum   'As4 H1 N2 Cl2 O6'
_cell_volume   290.96130547
_cell_formula_units_Z   1
loop_
 _symmetry_equiv_pos_site_id
 _symmetry_equiv_pos_as_xyz
  1  'x, y, z'
loop_
 _atom_site_type_symbol
 _atom_site_label
 _atom_site_symmetry_multiplicity
 _atom_site_fract_x
 _atom_site_fract_y
 _atom_site_fract_z
 _atom_site_occupancy
  As  As0  1  0.33333300  0.66666700  0.21359500  1
  As  As1  1  0.66666700  0.33333300  0.78640500  1
  As  As2  1  0.66666700  0.33333300  0.21359500  1
  As  As3  1  0.33333300  0.66666700  0.78640500  1
  H  H4  1  0.00000000  0.00000000  0.00000000  1
  N  N5  1  0.33333300  0.66666700  0.50000000  1
  N  N6  1  0.66666700  0.33333300  0.50000000  1
  Cl  Cl7  1  0.00000000  0.00000000  0.32343100  1
  Cl  Cl8  1  0.00000000  0.00000000  0.67656900  1
  O  O9  1  0.50000000  0.00000000  0.13301400  1
  O  O10  1  0.50000000  0.00000000  0.86698600  1
  O  O11  1  0.00000000  0.50000000  0.13301400  1
  O  O12  1  0.00000000  0.50000000  0.86698600  1
  O  O13  1  0.50000000  0.50000000  0.13301400  1
  O  O14  1  0.50000000  0.50000000  0.86698600  1
