# generated using pymatgen
data_TbDyAl4
_symmetry_space_group_name_H-M   'P 1'
_cell_length_a   5.56727372
_cell_length_b   5.56727372
_cell_length_c   5.56727372
_cell_angle_alpha   60.00000000
_cell_angle_beta   60.00000000
_cell_angle_gamma   60.00000000
_symmetry_Int_Tables_number   1
_chemical_formula_structural   TbDyAl4
_chemical_formula_sum   'Tb1 Dy1 Al4'
_cell_volume   122.01485975
_cell_formula_units_Z   1
loop_
 _symmetry_equiv_pos_site_id
 _symmetry_equiv_pos_as_xyz
  1  'x, y, z'
loop_
 _atom_site_type_symbol
 _atom_site_label
 _atom_site_symmetry_multiplicity
 _atom_site_fract_x
 _atom_site_fract_y
 _atom_site_fract_z
 _atom_site_occupancy
  Tb  Tb0  1  0.00000000  0.00000000  0.00000000  1
  Dy  Dy1  1  0.25000000  0.25000000  0.25000000  1
  Al  Al2  1  0.12502900  0.62499000  0.62499000  1
  Al  Al3  1  0.62499000  0.12502900  0.62499000  1
  Al  Al4  1  0.62499000  0.62499000  0.12502900  1
  Al  Al5  1  0.62499000  0.62499000  0.62499000  1
