# generated using pymatgen
data_Pr2(CoNi)5
_symmetry_space_group_name_H-M   'P 1'
_cell_length_a   3.97440300
_cell_length_b   4.98340600
_cell_length_c   8.62641200
_cell_angle_alpha   90.00000000
_cell_angle_beta   90.00000000
_cell_angle_gamma   90.00000000
_symmetry_Int_Tables_number   1
_chemical_formula_structural   Pr2(CoNi)5
_chemical_formula_sum   'Pr2 Co5 Ni5'
_cell_volume   170.85526606
_cell_formula_units_Z   1
loop_
 _symmetry_equiv_pos_site_id
 _symmetry_equiv_pos_as_xyz
  1  'x, y, z'
loop_
 _atom_site_type_symbol
 _atom_site_label
 _atom_site_symmetry_multiplicity
 _atom_site_fract_x
 _atom_site_fract_y
 _atom_site_fract_z
 _atom_site_occupancy
  Pr  Pr0  1  0.00000000  0.50000000  0.00000000  1
  Pr  Pr1  1  0.00000000  0.00000000  0.50000000  1
  Co  Co2  1  0.00000000  0.50000000  0.33379200  1
  Co  Co3  1  0.00000000  0.00000000  0.83330600  1
  Co  Co4  1  0.00000000  0.00000000  0.16669400  1
  Co  Co5  1  0.00000000  0.50000000  0.66620800  1
  Co  Co6  1  0.50000000  0.50000000  0.50000000  1
  Ni  Ni7  1  0.50000000  0.00000000  0.00000000  1
  Ni  Ni8  1  0.50000000  0.75009800  0.24999700  1
  Ni  Ni9  1  0.50000000  0.24990200  0.75000300  1
  Ni  Ni10  1  0.50000000  0.24990200  0.24999700  1
  Ni  Ni11  1  0.50000000  0.75009800  0.75000300  1
