# generated using pymatgen
data_In3SbTe4
_symmetry_space_group_name_H-M   'P 1'
_cell_length_a   6.91281735
_cell_length_b   6.91281735
_cell_length_c   6.91281735
_cell_angle_alpha   105.79483820
_cell_angle_beta   105.79483820
_cell_angle_gamma   117.10437504
_symmetry_Int_Tables_number   1
_chemical_formula_structural   In3SbTe4
_chemical_formula_sum   'In3 Sb1 Te4'
_cell_volume   250.87076805
_cell_formula_units_Z   1
loop_
 _symmetry_equiv_pos_site_id
 _symmetry_equiv_pos_as_xyz
  1  'x, y, z'
loop_
 _atom_site_type_symbol
 _atom_site_label
 _atom_site_symmetry_multiplicity
 _atom_site_fract_x
 _atom_site_fract_y
 _atom_site_fract_z
 _atom_site_occupancy
  In  In0  1  0.50000000  0.50000000  0.00000000  1
  In  In1  1  0.50000000  0.00000000  0.50000000  1
  In  In2  1  0.00000000  0.50000000  0.50000000  1
  Sb  Sb3  1  0.00000000  0.00000000  0.00000000  1
  Te  Te4  1  0.94095100  0.44095100  0.88190200  1
  Te  Te5  1  0.55904900  0.05904900  0.11809800  1
  Te  Te6  1  0.05904900  0.94095100  0.50000000  1
  Te  Te7  1  0.44095100  0.55904900  0.50000000  1
