# generated using pymatgen
data_Dy2MgS4
_symmetry_space_group_name_H-M   'P 1'
_cell_length_a   7.95291400
_cell_length_b   7.28923300
_cell_length_c   11.43121700
_cell_angle_alpha   90.00000000
_cell_angle_beta   90.00000000
_cell_angle_gamma   90.00000000
_symmetry_Int_Tables_number   1
_chemical_formula_structural   Dy2MgS4
_chemical_formula_sum   'Dy8 Mg4 S16'
_cell_volume   662.67500176
_cell_formula_units_Z   4
loop_
 _symmetry_equiv_pos_site_id
 _symmetry_equiv_pos_as_xyz
  1  'x, y, z'
loop_
 _atom_site_type_symbol
 _atom_site_label
 _atom_site_symmetry_multiplicity
 _atom_site_fract_x
 _atom_site_fract_y
 _atom_site_fract_z
 _atom_site_occupancy
  Dy  Dy0  1  0.04051300  0.75000000  0.30810900  1
  Dy  Dy1  1  0.95948700  0.25000000  0.69189100  1
  Dy  Dy2  1  0.45948700  0.25000000  0.80810900  1
  Dy  Dy3  1  0.54051300  0.75000000  0.19189100  1
  Dy  Dy4  1  0.07141300  0.25000000  0.02128100  1
  Dy  Dy5  1  0.92858700  0.75000000  0.97871900  1
  Dy  Dy6  1  0.42858700  0.75000000  0.52128100  1
  Dy  Dy7  1  0.57141300  0.25000000  0.47871900  1
  Mg  Mg8  1  0.18043900  0.25000000  0.40735300  1
  Mg  Mg9  1  0.81956100  0.75000000  0.59264700  1
  Mg  Mg10  1  0.31956100  0.75000000  0.90735300  1
  Mg  Mg11  1  0.68043900  0.25000000  0.09264700  1
  S  S12  1  0.12735800  0.50196200  0.84282000  1
  S  S13  1  0.87264200  0.49803800  0.15718000  1
  S  S14  1  0.37264200  0.49803800  0.34282000  1
  S  S15  1  0.62735800  0.50196200  0.65718000  1
  S  S16  1  0.62735800  0.99803800  0.65718000  1
  S  S17  1  0.37264200  0.00196200  0.34282000  1
  S  S18  1  0.87264200  0.00196200  0.15718000  1
  S  S19  1  0.12735800  0.99803800  0.84282000  1
  S  S20  1  0.89509500  0.25000000  0.45728200  1
  S  S21  1  0.10490500  0.75000000  0.54271800  1
  S  S22  1  0.60490500  0.75000000  0.95728200  1
  S  S23  1  0.39509500  0.25000000  0.04271800  1
  S  S24  1  0.22194600  0.75000000  0.10965700  1
  S  S25  1  0.77805400  0.25000000  0.89034300  1
  S  S26  1  0.27805400  0.25000000  0.60965700  1
  S  S27  1  0.72194600  0.75000000  0.39034300  1
