# generated using pymatgen
data_LiFeN
_symmetry_space_group_name_H-M   'P 1'
_cell_length_a   3.10061100
_cell_length_b   3.10058969
_cell_length_c   4.14533900
_cell_angle_alpha   90.00000000
_cell_angle_beta   90.00000000
_cell_angle_gamma   120.00023800
_symmetry_Int_Tables_number   1
_chemical_formula_structural   LiFeN
_chemical_formula_sum   'Li1 Fe1 N1'
_cell_volume   34.51288185
_cell_formula_units_Z   1
loop_
 _symmetry_equiv_pos_site_id
 _symmetry_equiv_pos_as_xyz
  1  'x, y, z'
loop_
 _atom_site_type_symbol
 _atom_site_label
 _atom_site_symmetry_multiplicity
 _atom_site_fract_x
 _atom_site_fract_y
 _atom_site_fract_z
 _atom_site_occupancy
  Li  Li0  1  0.66669300  0.33338700  0.00000000  1
  Fe  Fe1  1  0.00002100  0.00004100  0.50000000  1
  N  N2  1  0.66668600  0.33337100  0.50000000  1
