# generated using pymatgen
data_BaCaHfZrO6
_symmetry_space_group_name_H-M   'P 1'
_cell_length_a   5.91715430
_cell_length_b   5.91715430
_cell_length_c   5.91715430
_cell_angle_alpha   60.00000000
_cell_angle_beta   60.00000000
_cell_angle_gamma   60.00000000
_symmetry_Int_Tables_number   1
_chemical_formula_structural   BaCaHfZrO6
_chemical_formula_sum   'Ba1 Ca1 Hf1 Zr1 O6'
_cell_volume   146.49529785
_cell_formula_units_Z   1
loop_
 _symmetry_equiv_pos_site_id
 _symmetry_equiv_pos_as_xyz
  1  'x, y, z'
loop_
 _atom_site_type_symbol
 _atom_site_label
 _atom_site_symmetry_multiplicity
 _atom_site_fract_x
 _atom_site_fract_y
 _atom_site_fract_z
 _atom_site_occupancy
  Ba  Ba0  1  0.75000000  0.75000000  0.75000000  1
  Ca  Ca1  1  0.25000000  0.25000000  0.25000000  1
  Hf  Hf2  1  0.00000000  0.00000000  0.00000000  1
  Zr  Zr3  1  0.50000000  0.50000000  0.50000000  1
  O  O4  1  0.75182453  0.24817547  0.24817547  1
  O  O5  1  0.24817547  0.75182453  0.75182453  1
  O  O6  1  0.75182453  0.24817547  0.75182453  1
  O  O7  1  0.24817547  0.75182453  0.24817547  1
  O  O8  1  0.75182453  0.75182453  0.24817547  1
  O  O9  1  0.24817547  0.24817547  0.75182453  1
