# generated using pymatgen
data_BaNdV4O12
_symmetry_space_group_name_H-M   'P 1'
_cell_length_a   5.40666205
_cell_length_b   5.40666205
_cell_length_c   7.59842838
_cell_angle_alpha   90.00000000
_cell_angle_beta   90.00000000
_cell_angle_gamma   90.00000000
_symmetry_Int_Tables_number   1
_chemical_formula_structural   BaNdV4O12
_chemical_formula_sum   'Ba1 Nd1 V4 O12'
_cell_volume   222.11721679
_cell_formula_units_Z   1
loop_
 _symmetry_equiv_pos_site_id
 _symmetry_equiv_pos_as_xyz
  1  'x, y, z'
loop_
 _atom_site_type_symbol
 _atom_site_label
 _atom_site_symmetry_multiplicity
 _atom_site_fract_x
 _atom_site_fract_y
 _atom_site_fract_z
 _atom_site_occupancy
  Ba  Ba0  1  0.50000000  0.50000000  -0.00000000  1
  Nd  Nd1  1  -0.00000000  0.00000000  0.50000000  1
  V  V2  1  -0.00000000  0.50000000  0.74818165  1
  V  V3  1  -0.00000000  0.50000000  0.25181835  1
  V  V4  1  0.50000000  0.00000000  0.74818165  1
  V  V5  1  0.50000000  -0.00000000  0.25181835  1
  O  O6  1  0.24457046  0.24457046  0.26030710  1
  O  O7  1  0.24457046  0.24457046  0.73969290  1
  O  O8  1  0.75542954  0.75542954  0.73969290  1
  O  O9  1  0.75542954  0.75542954  0.26030710  1
  O  O10  1  0.75542954  0.24457046  0.73969290  1
  O  O11  1  0.75542954  0.24457046  0.26030710  1
  O  O12  1  0.24457046  0.75542954  0.73969290  1
  O  O13  1  0.24457046  0.75542954  0.26030710  1
  O  O14  1  -0.00000000  0.50000000  0.50000000  1
  O  O15  1  -0.00000000  0.50000000  0.00000000  1
  O  O16  1  0.50000000  -0.00000000  0.50000000  1
  O  O17  1  0.50000000  -0.00000000  0.00000000  1
