data_image0
_chemical_formula_structural       Cs2O4U
_chemical_formula_sum              "Cs2 O4 U1"
_cell_length_a       4.43516
_cell_length_b       4.43516
_cell_length_c       7.96593
_cell_angle_alpha    106.164
_cell_angle_beta     106.164
_cell_angle_gamma    90

_space_group_name_H-M_alt    "P 1"
_space_group_IT_number       1

loop_
  _space_group_symop_operation_xyz
  'x, y, z'

loop_
  _atom_site_type_symbol
  _atom_site_label
  _atom_site_symmetry_multiplicity
  _atom_site_fract_x
  _atom_site_fract_y
  _atom_site_fract_z
  _atom_site_occupancy
  Cs  Cs1       1.0  0.65600  0.65600  0.31200  1.0000
  Cs  Cs2       1.0  0.34400  0.34400  0.68800  1.0000
  O   O1        1.0  0.50000  0.00000  0.00000  1.0000
  O   O2        1.0  0.00000  0.50000  0.00000  1.0000
  O   O3        1.0  0.13200  0.13200  0.26400  1.0000
  O   O4        1.0  0.86800  0.86800  0.73600  1.0000
  U   U1        1.0  0.00000  0.00000  0.00000  1.0000
