# generated using pymatgen
data_Nb2VTc
_symmetry_space_group_name_H-M   'P 1'
_cell_length_a   11.41558317
_cell_length_b   11.41558317
_cell_length_c   11.41558317
_cell_angle_alpha   133.04853201
_cell_angle_beta   116.01978338
_cell_angle_gamma   83.03291880
_symmetry_Int_Tables_number   1
_chemical_formula_structural   Nb2VTc
_chemical_formula_sum   'Nb2 V1 Tc1'
_cell_volume   940.29937253
_cell_formula_units_Z   1
loop_
 _symmetry_equiv_pos_site_id
 _symmetry_equiv_pos_as_xyz
  1  'x, y, z'
loop_
 _atom_site_type_symbol
 _atom_site_label
 _atom_site_symmetry_multiplicity
 _atom_site_fract_x
 _atom_site_fract_y
 _atom_site_fract_z
 _atom_site_occupancy
  Nb  Nb0  1  0.00000000  0.25799700  0.25799700  1
  Nb  Nb1  1  0.00000000  0.74200300  0.74200300  1
  V  V2  1  0.00000000  0.00000000  0.00000000  1
  Tc  Tc3  1  0.00000000  0.50000000  0.50000000  1
