# generated using pymatgen
data_CaInRh2
_symmetry_space_group_name_H-M   'P 1'
_cell_length_a   11.40233971
_cell_length_b   11.40233971
_cell_length_c   11.40233971
_cell_angle_alpha   127.60664987
_cell_angle_beta   117.69063424
_cell_angle_gamma   85.70254548
_symmetry_Int_Tables_number   1
_chemical_formula_structural   CaInRh2
_chemical_formula_sum   'Ca1 In1 Rh2'
_cell_volume   992.85965653
_cell_formula_units_Z   1
loop_
 _symmetry_equiv_pos_site_id
 _symmetry_equiv_pos_as_xyz
  1  'x, y, z'
loop_
 _atom_site_type_symbol
 _atom_site_label
 _atom_site_symmetry_multiplicity
 _atom_site_fract_x
 _atom_site_fract_y
 _atom_site_fract_z
 _atom_site_occupancy
  Ca  Ca0  1  0.00000000  0.00000000  0.00000000  1
  In  In1  1  0.00000000  0.50000000  0.50000000  1
  Rh  Rh2  1  0.00000000  0.24530400  0.24530400  1
  Rh  Rh3  1  0.00000000  0.75469600  0.75469600  1
