# generated using pymatgen
data_SrMg3
_symmetry_space_group_name_H-M   'P 1'
_cell_length_a   7.19482592
_cell_length_b   7.19482592
_cell_length_c   5.32790700
_cell_angle_alpha   90.00000000
_cell_angle_beta   90.00000000
_cell_angle_gamma   119.99999927
_symmetry_Int_Tables_number   1
_chemical_formula_structural   SrMg3
_chemical_formula_sum   'Sr2 Mg6'
_cell_volume   238.85143323
_cell_formula_units_Z   2
loop_
 _symmetry_equiv_pos_site_id
 _symmetry_equiv_pos_as_xyz
  1  'x, y, z'
loop_
 _atom_site_type_symbol
 _atom_site_label
 _atom_site_symmetry_multiplicity
 _atom_site_fract_x
 _atom_site_fract_y
 _atom_site_fract_z
 _atom_site_occupancy
  Sr  Sr0  1  0.33333300  0.66666700  0.25000000  1
  Sr  Sr1  1  0.66666700  0.33333300  0.75000000  1
  Mg  Mg2  1  0.30636000  0.15318000  0.25000000  1
  Mg  Mg3  1  0.84682000  0.15318000  0.25000000  1
  Mg  Mg4  1  0.84682000  0.69364000  0.25000000  1
  Mg  Mg5  1  0.69364000  0.84682000  0.75000000  1
  Mg  Mg6  1  0.15318000  0.30636000  0.75000000  1
  Mg  Mg7  1  0.15318000  0.84682000  0.75000000  1
