# generated using pymatgen
data_CdI2
_symmetry_space_group_name_H-M   'P 1'
_cell_length_a   4.33200665
_cell_length_b   4.33200665
_cell_length_c   44.45199700
_cell_angle_alpha   90.00000000
_cell_angle_beta   90.00000000
_cell_angle_gamma   120.00000998
_symmetry_Int_Tables_number   1
_chemical_formula_structural   CdI2
_chemical_formula_sum   'Cd6 I12'
_cell_volume   722.43718940
_cell_formula_units_Z   6
loop_
 _symmetry_equiv_pos_site_id
 _symmetry_equiv_pos_as_xyz
  1  'x, y, z'
loop_
 _atom_site_type_symbol
 _atom_site_label
 _atom_site_symmetry_multiplicity
 _atom_site_fract_x
 _atom_site_fract_y
 _atom_site_fract_z
 _atom_site_occupancy
  Cd  Cd0  1  0.00000000  0.00000000  0.04167200  1
  Cd  Cd1  1  0.00000000  0.00000000  0.37499200  1
  Cd  Cd2  1  0.33333300  0.66666700  0.70835000  1
  Cd  Cd3  1  0.00000000  0.00000000  0.54166100  1
  Cd  Cd4  1  0.33333300  0.66666700  0.20833700  1
  Cd  Cd5  1  0.33333300  0.66666700  0.87497400  1
  I  I6  1  0.66666700  0.33333300  0.08052200  1
  I  I7  1  0.66666700  0.33333300  0.41385400  1
  I  I8  1  0.00000000  0.00000000  0.66948500  1
  I  I9  1  0.66666700  0.33333300  0.58051800  1
  I  I10  1  0.66666700  0.33333300  0.74721200  1
  I  I11  1  0.66666700  0.33333300  0.91384600  1
  I  I12  1  0.33333300  0.66666700  0.33616200  1
  I  I13  1  0.33333300  0.66666700  0.00283300  1
  I  I14  1  0.00000000  0.00000000  0.83610000  1
  I  I15  1  0.66666700  0.33333300  0.24719400  1
  I  I16  1  0.33333300  0.66666700  0.50281500  1
  I  I17  1  0.00000000  0.00000000  0.16947400  1
