# generated using pymatgen
data_Mg2Cd
_symmetry_space_group_name_H-M   'P 1'
_cell_length_a   6.01336910
_cell_length_b   6.01336910
_cell_length_c   7.38346685
_cell_angle_alpha   75.48897034
_cell_angle_beta   75.48897034
_cell_angle_gamma   30.84277639
_symmetry_Int_Tables_number   1
_chemical_formula_structural   Mg2Cd
_chemical_formula_sum   'Mg4 Cd2'
_cell_volume   132.17705875
_cell_formula_units_Z   2
loop_
 _symmetry_equiv_pos_site_id
 _symmetry_equiv_pos_as_xyz
  1  'x, y, z'
loop_
 _atom_site_type_symbol
 _atom_site_label
 _atom_site_symmetry_multiplicity
 _atom_site_fract_x
 _atom_site_fract_y
 _atom_site_fract_z
 _atom_site_occupancy
  Mg  Mg0  1  0.80892400  0.80892400  0.63654400  1
  Mg  Mg1  1  0.13795100  0.13795100  0.97269700  1
  Mg  Mg2  1  0.86204900  0.86204900  0.02730300  1
  Mg  Mg3  1  0.19107600  0.19107600  0.36345600  1
  Cd  Cd4  1  0.52902200  0.52902200  0.69611100  1
  Cd  Cd5  1  0.47097800  0.47097800  0.30388900  1
