# generated using pymatgen
data_Hf2NiRh
_symmetry_space_group_name_H-M   'P 1'
_cell_length_a   10.51317991
_cell_length_b   10.51317991
_cell_length_c   10.51317991
_cell_angle_alpha   127.21255347
_cell_angle_beta   117.66164187
_cell_angle_gamma   86.04213731
_symmetry_Int_Tables_number   1
_chemical_formula_structural   Hf2NiRh
_chemical_formula_sum   'Hf2 Ni1 Rh1'
_cell_volume   781.83508101
_cell_formula_units_Z   1
loop_
 _symmetry_equiv_pos_site_id
 _symmetry_equiv_pos_as_xyz
  1  'x, y, z'
loop_
 _atom_site_type_symbol
 _atom_site_label
 _atom_site_symmetry_multiplicity
 _atom_site_fract_x
 _atom_site_fract_y
 _atom_site_fract_z
 _atom_site_occupancy
  Hf  Hf0  1  0.00000000  0.25059600  0.25059600  1
  Hf  Hf1  1  0.00000000  0.74940400  0.74940400  1
  Ni  Ni2  1  0.00000000  0.00000000  0.00000000  1
  Rh  Rh3  1  0.00000000  0.50000000  0.50000000  1
