# generated using pymatgen
data_CaPdAu2
_symmetry_space_group_name_H-M   'P 1'
_cell_length_a   11.86400419
_cell_length_b   11.86400419
_cell_length_c   11.86400419
_cell_angle_alpha   127.36791778
_cell_angle_beta   117.61001134
_cell_angle_gamma   85.96408345
_symmetry_Int_Tables_number   1
_chemical_formula_structural   CaPdAu2
_chemical_formula_sum   'Ca1 Pd1 Au2'
_cell_volume   1122.06345062
_cell_formula_units_Z   1
loop_
 _symmetry_equiv_pos_site_id
 _symmetry_equiv_pos_as_xyz
  1  'x, y, z'
loop_
 _atom_site_type_symbol
 _atom_site_label
 _atom_site_symmetry_multiplicity
 _atom_site_fract_x
 _atom_site_fract_y
 _atom_site_fract_z
 _atom_site_occupancy
  Ca  Ca0  1  0.00000000  0.00000000  0.00000000  1
  Pd  Pd1  1  0.00000000  0.50000000  0.50000000  1
  Au  Au2  1  0.00000000  0.25120900  0.25120900  1
  Au  Au3  1  0.00000000  0.74879100  0.74879100  1
