# generated using pymatgen
data_LaYPb2
_symmetry_space_group_name_H-M   'P 1'
_cell_length_a   12.91670407
_cell_length_b   12.91670407
_cell_length_c   12.91670407
_cell_angle_alpha   125.56871398
_cell_angle_beta   118.18087572
_cell_angle_gamma   86.90822494
_symmetry_Int_Tables_number   1
_chemical_formula_structural   LaYPb2
_chemical_formula_sum   'La1 Y1 Pb2'
_cell_volume   1470.08836648
_cell_formula_units_Z   1
loop_
 _symmetry_equiv_pos_site_id
 _symmetry_equiv_pos_as_xyz
  1  'x, y, z'
loop_
 _atom_site_type_symbol
 _atom_site_label
 _atom_site_symmetry_multiplicity
 _atom_site_fract_x
 _atom_site_fract_y
 _atom_site_fract_z
 _atom_site_occupancy
  La  La0  1  0.00000000  0.50000000  0.50000000  1
  Y  Y1  1  0.00000000  0.00000000  0.00000000  1
  Pb  Pb2  1  0.00000000  0.24681300  0.24681300  1
  Pb  Pb3  1  0.00000000  0.75318700  0.75318700  1
