# generated using pymatgen
data_Mn3CrO8
_symmetry_space_group_name_H-M   'P 1'
_cell_length_a   5.87190199
_cell_length_b   5.87190199
_cell_length_c   5.87190209
_cell_angle_alpha   59.74163418
_cell_angle_beta   59.74163418
_cell_angle_gamma   59.74163250
_symmetry_Int_Tables_number   1
_chemical_formula_structural   Mn3CrO8
_chemical_formula_sum   'Mn3 Cr1 O8'
_cell_volume   142.31994985
_cell_formula_units_Z   1
loop_
 _symmetry_equiv_pos_site_id
 _symmetry_equiv_pos_as_xyz
  1  'x, y, z'
loop_
 _atom_site_type_symbol
 _atom_site_label
 _atom_site_symmetry_multiplicity
 _atom_site_fract_x
 _atom_site_fract_y
 _atom_site_fract_z
 _atom_site_occupancy
  Mn  Mn0  1  0.00000000  0.50000000  0.50000000  1
  Mn  Mn1  1  0.50000000  0.00000000  0.50000000  1
  Mn  Mn2  1  0.50000000  0.50000000  0.00000000  1
  Cr  Cr3  1  0.00000000  0.00000000  0.00000000  1
  O  O4  1  0.26753900  0.26753900  0.26753900  1
  O  O5  1  0.26968300  0.76656200  0.76656200  1
  O  O6  1  0.76656200  0.26968300  0.76656200  1
  O  O7  1  0.73246100  0.73246100  0.73246100  1
  O  O8  1  0.76656200  0.76656200  0.26968300  1
  O  O9  1  0.73031700  0.23343800  0.23343800  1
  O  O10  1  0.23343800  0.73031700  0.23343800  1
  O  O11  1  0.23343800  0.23343800  0.73031700  1
