data_image0
_chemical_formula_structural       CO5U
_chemical_formula_sum              "C1 O5 U1"
_cell_length_a       4.29576
_cell_length_b       4.86311
_cell_length_c       5.52826
_cell_angle_alpha    116.094
_cell_angle_beta     112.863
_cell_angle_gamma    90

_space_group_name_H-M_alt    "P 1"
_space_group_IT_number       1

loop_
  _space_group_symop_operation_xyz
  'x, y, z'

loop_
  _atom_site_type_symbol
  _atom_site_label
  _atom_site_symmetry_multiplicity
  _atom_site_fract_x
  _atom_site_fract_y
  _atom_site_fract_z
  _atom_site_occupancy
  C   C1        1.0  0.61900  0.50000  0.00000  1.0000
  O   O1        1.0  0.48900  0.26400  0.00000  1.0000
  O   O2        1.0  0.92200  0.50000  0.00000  1.0000
  O   O3        1.0  0.48900  0.73600  0.00000  1.0000
  O   O4        1.0  0.20100  0.19700  0.39400  1.0000
  O   O5        1.0  0.80700  0.80300  0.60600  1.0000
  U   U1        1.0  0.00428  0.00000  0.00000  1.0000
