# generated using pymatgen
data_NbAlTc2
_symmetry_space_group_name_H-M   'P 1'
_cell_length_a   10.54047808
_cell_length_b   10.54047808
_cell_length_c   10.54047808
_cell_angle_alpha   126.00817373
_cell_angle_beta   118.05955755
_cell_angle_gamma   86.65834800
_symmetry_Int_Tables_number   1
_chemical_formula_structural   NbAlTc2
_chemical_formula_sum   'Nb1 Al1 Tc2'
_cell_volume   795.93506453
_cell_formula_units_Z   1
loop_
 _symmetry_equiv_pos_site_id
 _symmetry_equiv_pos_as_xyz
  1  'x, y, z'
loop_
 _atom_site_type_symbol
 _atom_site_label
 _atom_site_symmetry_multiplicity
 _atom_site_fract_x
 _atom_site_fract_y
 _atom_site_fract_z
 _atom_site_occupancy
  Nb  Nb0  1  0.00000000  0.50000000  0.50000000  1
  Al  Al1  1  0.00000000  0.00000000  0.00000000  1
  Tc  Tc2  1  0.00000000  0.26562100  0.26562100  1
  Tc  Tc3  1  0.00000000  0.73437900  0.73437900  1
