# generated using pymatgen
data_Be2CoPd
_symmetry_space_group_name_H-M   'P 1'
_cell_length_a   9.26127162
_cell_length_b   9.26127162
_cell_length_c   9.26127162
_cell_angle_alpha   125.63890814
_cell_angle_beta   118.26002089
_cell_angle_gamma   86.78122263
_symmetry_Int_Tables_number   1
_chemical_formula_structural   Be2CoPd
_chemical_formula_sum   'Be2 Co1 Pd1'
_cell_volume   541.17363356
_cell_formula_units_Z   1
loop_
 _symmetry_equiv_pos_site_id
 _symmetry_equiv_pos_as_xyz
  1  'x, y, z'
loop_
 _atom_site_type_symbol
 _atom_site_label
 _atom_site_symmetry_multiplicity
 _atom_site_fract_x
 _atom_site_fract_y
 _atom_site_fract_z
 _atom_site_occupancy
  Be  Be0  1  0.00000000  0.25103300  0.25103300  1
  Be  Be1  1  0.00000000  0.74896700  0.74896700  1
  Co  Co2  1  0.00000000  0.00000000  0.00000000  1
  Pd  Pd3  1  0.00000000  0.50000000  0.50000000  1
