# generated using pymatgen
data_Y2CuOs
_symmetry_space_group_name_H-M   'P 1'
_cell_length_a   11.28511155
_cell_length_b   11.28511155
_cell_length_c   11.28511155
_cell_angle_alpha   124.66799062
_cell_angle_beta   118.26442828
_cell_angle_gamma   87.57213219
_symmetry_Int_Tables_number   1
_chemical_formula_structural   Y2CuOs
_chemical_formula_sum   'Y2 Cu1 Os1'
_cell_volume   988.67394520
_cell_formula_units_Z   1
loop_
 _symmetry_equiv_pos_site_id
 _symmetry_equiv_pos_as_xyz
  1  'x, y, z'
loop_
 _atom_site_type_symbol
 _atom_site_label
 _atom_site_symmetry_multiplicity
 _atom_site_fract_x
 _atom_site_fract_y
 _atom_site_fract_z
 _atom_site_occupancy
  Y  Y0  1  0.00000000  0.27221700  0.27221700  1
  Y  Y1  1  0.00000000  0.72778300  0.72778300  1
  Cu  Cu2  1  0.00000000  0.00000000  0.00000000  1
  Os  Os3  1  0.00000000  0.50000000  0.50000000  1
