data_image0
_chemical_formula_structural       C4H4Na4O12
_chemical_formula_sum              "C4 H4 Na4 O12"
_cell_length_a       3.22336
_cell_length_b       9.42941
_cell_length_c       7.53987
_cell_angle_alpha    90
_cell_angle_beta     109.184
_cell_angle_gamma    90

_space_group_name_H-M_alt    "P 1"
_space_group_IT_number       1

loop_
  _space_group_symop_operation_xyz
  'x, y, z'

loop_
  _atom_site_type_symbol
  _atom_site_label
  _atom_site_symmetry_multiplicity
  _atom_site_fract_x
  _atom_site_fract_y
  _atom_site_fract_z
  _atom_site_occupancy
  C   C1        1.0  0.77500  0.73900  0.57400  1.0000
  C   C2        1.0  0.77500  0.76100  0.07390  1.0000
  C   C3        1.0  0.22500  0.26100  0.42600  1.0000
  C   C4        1.0  0.22500  0.23900  0.92600  1.0000
  H   H1        1.0  0.73000  0.24400  0.16000  1.0000
  H   H2        1.0  0.27000  0.74400  0.34000  1.0000
  H   H3        1.0  0.27000  0.75600  0.84000  1.0000
  H   H4        1.0  0.73000  0.25600  0.66000  1.0000
  Na  Na1       1.0  0.43300  0.00214  0.71800  1.0000
  Na  Na2       1.0  0.56700  0.50200  0.78200  1.0000
  Na  Na3       1.0  0.56700  0.99800  0.28200  1.0000
  Na  Na4       1.0  0.43300  0.49800  0.21800  1.0000
  O   O1        1.0  0.52000  0.16700  0.06030  1.0000
  O   O2        1.0  0.48000  0.66700  0.44000  1.0000
  O   O3        1.0  0.48000  0.83300  0.94000  1.0000
  O   O4        1.0  0.52000  0.33300  0.56000  1.0000
  O   O5        1.0  0.98400  0.16500  0.78600  1.0000
  O   O6        1.0  0.01640  0.66500  0.71400  1.0000
  O   O7        1.0  0.01640  0.83500  0.21400  1.0000
  O   O8        1.0  0.98400  0.33500  0.28600  1.0000
  O   O9        1.0  0.19500  0.37200  0.93500  1.0000
  O   O10       1.0  0.80500  0.87200  0.56500  1.0000
  O   O11       1.0  0.80500  0.62800  0.06490  1.0000
  O   O12       1.0  0.19500  0.12800  0.43500  1.0000
