# generated using pymatgen
data_MoSeS
_symmetry_space_group_name_H-M   'P 1'
_cell_length_a   3.25627176
_cell_length_b   3.25627176
_cell_length_c   36.45187000
_cell_angle_alpha   90.00000000
_cell_angle_beta   90.00000000
_cell_angle_gamma   119.99999519
_symmetry_Int_Tables_number   1
_chemical_formula_structural   MoSeS
_chemical_formula_sum   'Mo4 Se4 S4'
_cell_volume   334.72777599
_cell_formula_units_Z   4
loop_
 _symmetry_equiv_pos_site_id
 _symmetry_equiv_pos_as_xyz
  1  'x, y, z'
loop_
 _atom_site_type_symbol
 _atom_site_label
 _atom_site_symmetry_multiplicity
 _atom_site_fract_x
 _atom_site_fract_y
 _atom_site_fract_z
 _atom_site_occupancy
  Mo  Mo0  1  0.00000000  0.00000000  0.09393300  1
  Mo  Mo1  1  0.00000000  0.00000000  0.46961100  1
  Mo  Mo2  1  0.33333300  0.66666700  0.28179700  1
  Mo  Mo3  1  0.33333300  0.66666700  0.65756100  1
  Se  Se4  1  0.00000000  0.00000000  0.70413500  1
  Se  Se5  1  0.33333300  0.66666700  0.42309500  1
  Se  Se6  1  0.33333300  0.66666700  0.51619100  1
  Se  Se7  1  0.00000000  0.00000000  0.61100700  1
  S  S8  1  0.00000000  0.00000000  0.32413600  1
  S  S9  1  0.33333300  0.66666700  0.05154700  1
  S  S10  1  0.33333300  0.66666700  0.13629300  1
  S  S11  1  0.00000000  0.00000000  0.23944000  1
