# generated using pymatgen
data_YHfMg14O16
_symmetry_space_group_name_H-M   'P 1'
_cell_length_a   4.39294300
_cell_length_b   8.77116400
_cell_length_c   8.79525700
_cell_angle_alpha   90.00000000
_cell_angle_beta   90.00000000
_cell_angle_gamma   90.00000000
_symmetry_Int_Tables_number   1
_chemical_formula_structural   YHfMg14O16
_chemical_formula_sum   'Y1 Hf1 Mg14 O16'
_cell_volume   338.89201317
_cell_formula_units_Z   1
loop_
 _symmetry_equiv_pos_site_id
 _symmetry_equiv_pos_as_xyz
  1  'x, y, z'
loop_
 _atom_site_type_symbol
 _atom_site_label
 _atom_site_symmetry_multiplicity
 _atom_site_fract_x
 _atom_site_fract_y
 _atom_site_fract_z
 _atom_site_occupancy
  Y  Y0  1  0.00000000  0.00000000  0.00000000  1
  Hf  Hf1  1  0.00000000  0.00000000  0.50000000  1
  Mg  Mg2  1  0.00000000  0.50000000  0.00000000  1
  Mg  Mg3  1  0.00000000  0.50000000  0.50000000  1
  Mg  Mg4  1  0.50000000  0.00000000  0.25515700  1
  Mg  Mg5  1  0.50000000  0.00000000  0.74484300  1
  Mg  Mg6  1  0.50000000  0.50000000  0.25151100  1
  Mg  Mg7  1  0.50000000  0.50000000  0.74848900  1
  Mg  Mg8  1  0.50000000  0.26351000  0.00000000  1
  Mg  Mg9  1  0.50000000  0.25860100  0.50000000  1
  Mg  Mg10  1  0.50000000  0.73649000  0.00000000  1
  Mg  Mg11  1  0.50000000  0.74139900  0.50000000  1
  Mg  Mg12  1  0.00000000  0.26062000  0.25321500  1
  Mg  Mg13  1  0.00000000  0.26062000  0.74678500  1
  Mg  Mg14  1  0.00000000  0.73938000  0.25321500  1
  Mg  Mg15  1  0.00000000  0.73938000  0.74678500  1
  O  O16  1  0.00000000  0.26227100  0.00000000  1
  O  O17  1  0.00000000  0.26035000  0.50000000  1
  O  O18  1  0.00000000  0.73772900  0.00000000  1
  O  O19  1  0.00000000  0.73965000  0.50000000  1
  O  O20  1  0.50000000  0.25157300  0.24859400  1
  O  O21  1  0.50000000  0.25157300  0.75140600  1
  O  O22  1  0.50000000  0.74842700  0.24859400  1
  O  O23  1  0.50000000  0.74842700  0.75140600  1
  O  O24  1  0.50000000  0.00000000  0.00000000  1
  O  O25  1  0.50000000  0.00000000  0.50000000  1
  O  O26  1  0.50000000  0.50000000  0.00000000  1
  O  O27  1  0.50000000  0.50000000  0.50000000  1
  O  O28  1  0.00000000  0.00000000  0.25392600  1
  O  O29  1  0.00000000  0.00000000  0.74607400  1
  O  O30  1  0.00000000  0.50000000  0.25024200  1
  O  O31  1  0.00000000  0.50000000  0.74975800  1
