# generated using pymatgen
data_Ba2SbBr
_symmetry_space_group_name_H-M   'P 1'
_cell_length_a   13.15446100
_cell_length_b   13.15446100
_cell_length_c   13.15446100
_cell_angle_alpha   122.32765703
_cell_angle_beta   119.12332143
_cell_angle_gamma   88.77083694
_symmetry_Int_Tables_number   1
_chemical_formula_structural   Ba2SbBr
_chemical_formula_sum   'Ba2 Sb1 Br1'
_cell_volume   1589.90372833
_cell_formula_units_Z   1
loop_
 _symmetry_equiv_pos_site_id
 _symmetry_equiv_pos_as_xyz
  1  'x, y, z'
loop_
 _atom_site_type_symbol
 _atom_site_label
 _atom_site_symmetry_multiplicity
 _atom_site_fract_x
 _atom_site_fract_y
 _atom_site_fract_z
 _atom_site_occupancy
  Ba  Ba0  1  0.00000000  0.25617500  0.25617500  1
  Ba  Ba1  1  0.00000000  0.74382500  0.74382500  1
  Sb  Sb2  1  0.00000000  0.50000000  0.50000000  1
  Br  Br3  1  0.00000000  0.00000000  0.00000000  1
