# generated using pymatgen
data_Mg5Ti
_symmetry_space_group_name_H-M   'P 1'
_cell_length_a   6.11553448
_cell_length_b   6.11553448
_cell_length_c   6.11553490
_cell_angle_alpha   52.21313909
_cell_angle_beta   52.21313909
_cell_angle_gamma   52.21314228
_symmetry_Int_Tables_number   1
_chemical_formula_structural   Mg5Ti
_chemical_formula_sum   'Mg5 Ti1'
_cell_volume   132.13896662
_cell_formula_units_Z   1
loop_
 _symmetry_equiv_pos_site_id
 _symmetry_equiv_pos_as_xyz
  1  'x, y, z'
loop_
 _atom_site_type_symbol
 _atom_site_label
 _atom_site_symmetry_multiplicity
 _atom_site_fract_x
 _atom_site_fract_y
 _atom_site_fract_z
 _atom_site_occupancy
  Mg  Mg0  1  0.00000000  0.65987300  0.34012700  1
  Mg  Mg1  1  0.16513800  0.16513800  0.16513800  1
  Mg  Mg2  1  0.34012700  0.00000000  0.65987300  1
  Mg  Mg3  1  0.65987300  0.34012700  0.00000000  1
  Mg  Mg4  1  0.83486200  0.83486200  0.83486200  1
  Ti  Ti5  1  0.50000000  0.50000000  0.50000000  1
