# generated using pymatgen
data_Mg5Ga
_symmetry_space_group_name_H-M   'P 1'
_cell_length_a   6.13844411
_cell_length_b   6.13844411
_cell_length_c   7.22862710
_cell_angle_alpha   76.98987490
_cell_angle_beta   76.98987490
_cell_angle_gamma   29.35148432
_symmetry_Int_Tables_number   1
_chemical_formula_structural   Mg5Ga
_chemical_formula_sum   'Mg5 Ga1'
_cell_volume   129.84497208
_cell_formula_units_Z   1
loop_
 _symmetry_equiv_pos_site_id
 _symmetry_equiv_pos_as_xyz
  1  'x, y, z'
loop_
 _atom_site_type_symbol
 _atom_site_label
 _atom_site_symmetry_multiplicity
 _atom_site_fract_x
 _atom_site_fract_y
 _atom_site_fract_z
 _atom_site_occupancy
  Mg  Mg0  1  0.00189900  0.00189900  0.00407800  1
  Mg  Mg1  1  0.33117100  0.33117100  0.33163100  1
  Mg  Mg2  1  0.94693700  0.94693700  0.60570000  1
  Mg  Mg3  1  0.66720400  0.66720400  0.66395500  1
  Mg  Mg4  1  0.27600600  0.27600600  0.94846100  1
  Ga  Ga5  1  0.61011500  0.61011500  0.27950800  1
