# generated using pymatgen
data_AlGaPd2
_symmetry_space_group_name_H-M   'P 1'
_cell_length_a   10.41816428
_cell_length_b   10.41816428
_cell_length_c   10.41816428
_cell_angle_alpha   124.60323983
_cell_angle_beta   118.49172379
_cell_angle_gamma   87.42528672
_symmetry_Int_Tables_number   1
_chemical_formula_structural   AlGaPd2
_chemical_formula_sum   'Al1 Ga1 Pd2'
_cell_volume   777.07906344
_cell_formula_units_Z   1
loop_
 _symmetry_equiv_pos_site_id
 _symmetry_equiv_pos_as_xyz
  1  'x, y, z'
loop_
 _atom_site_type_symbol
 _atom_site_label
 _atom_site_symmetry_multiplicity
 _atom_site_fract_x
 _atom_site_fract_y
 _atom_site_fract_z
 _atom_site_occupancy
  Al  Al0  1  0.00000000  0.00000000  0.00000000  1
  Ga  Ga1  1  0.00000000  0.50000000  0.50000000  1
  Pd  Pd2  1  0.00000000  0.24598700  0.24598700  1
  Pd  Pd3  1  0.00000000  0.75401300  0.75401300  1
