# generated using pymatgen
data_SrLaZn2
_symmetry_space_group_name_H-M   'P 1'
_cell_length_a   11.90136285
_cell_length_b   11.90136285
_cell_length_c   11.90136285
_cell_angle_alpha   121.85448182
_cell_angle_beta   114.78717163
_cell_angle_gamma   93.03738074
_symmetry_Int_Tables_number   1
_chemical_formula_structural   SrLaZn2
_chemical_formula_sum   'Sr1 La1 Zn2'
_cell_volume   1214.94796665
_cell_formula_units_Z   1
loop_
 _symmetry_equiv_pos_site_id
 _symmetry_equiv_pos_as_xyz
  1  'x, y, z'
loop_
 _atom_site_type_symbol
 _atom_site_label
 _atom_site_symmetry_multiplicity
 _atom_site_fract_x
 _atom_site_fract_y
 _atom_site_fract_z
 _atom_site_occupancy
  Sr  Sr0  1  0.00000000  0.00000000  0.00000000  1
  La  La1  1  0.50000000  0.00000000  0.50000000  1
  Zn  Zn2  1  0.26319900  0.00000000  0.26319900  1
  Zn  Zn3  1  0.73680100  0.00000000  0.73680100  1
