# generated using pymatgen
data_Ta2TiW
_symmetry_space_group_name_H-M   'P 1'
_cell_length_a   10.69263137
_cell_length_b   10.69263137
_cell_length_c   10.69263137
_cell_angle_alpha   127.54507888
_cell_angle_beta   118.15187536
_cell_angle_gamma   85.34269675
_symmetry_Int_Tables_number   1
_chemical_formula_structural   Ta2TiW
_chemical_formula_sum   'Ta2 Ti1 W1'
_cell_volume   816.56378103
_cell_formula_units_Z   1
loop_
 _symmetry_equiv_pos_site_id
 _symmetry_equiv_pos_as_xyz
  1  'x, y, z'
loop_
 _atom_site_type_symbol
 _atom_site_label
 _atom_site_symmetry_multiplicity
 _atom_site_fract_x
 _atom_site_fract_y
 _atom_site_fract_z
 _atom_site_occupancy
  Ta  Ta0  1  0.00000000  0.25150800  0.25150800  1
  Ta  Ta1  1  0.00000000  0.74849200  0.74849200  1
  Ti  Ti2  1  0.00000000  0.00000000  0.00000000  1
  W  W3  1  0.00000000  0.50000000  0.50000000  1
