# generated using pymatgen
data_HfPdAu2
_symmetry_space_group_name_H-M   'P 1'
_cell_length_a   11.15603306
_cell_length_b   11.15603306
_cell_length_c   11.15603306
_cell_angle_alpha   125.72027841
_cell_angle_beta   118.16361951
_cell_angle_gamma   86.80010534
_symmetry_Int_Tables_number   1
_chemical_formula_structural   HfPdAu2
_chemical_formula_sum   'Hf1 Pd1 Au2'
_cell_volume   945.79279228
_cell_formula_units_Z   1
loop_
 _symmetry_equiv_pos_site_id
 _symmetry_equiv_pos_as_xyz
  1  'x, y, z'
loop_
 _atom_site_type_symbol
 _atom_site_label
 _atom_site_symmetry_multiplicity
 _atom_site_fract_x
 _atom_site_fract_y
 _atom_site_fract_z
 _atom_site_occupancy
  Hf  Hf0  1  0.00000000  0.50000000  0.50000000  1
  Pd  Pd1  1  0.00000000  0.00000000  0.00000000  1
  Au  Au2  1  0.00000000  0.25219400  0.25219400  1
  Au  Au3  1  0.00000000  0.74780600  0.74780600  1
