# generated using pymatgen
data_NbV2Re
_symmetry_space_group_name_H-M   'P 1'
_cell_length_a   10.17778769
_cell_length_b   10.17778769
_cell_length_c   10.17778769
_cell_angle_alpha   128.51595725
_cell_angle_beta   117.30515921
_cell_angle_gamma   85.32738533
_symmetry_Int_Tables_number   1
_chemical_formula_structural   NbV2Re
_chemical_formula_sum   'Nb1 V2 Re1'
_cell_volume   700.66855320
_cell_formula_units_Z   1
loop_
 _symmetry_equiv_pos_site_id
 _symmetry_equiv_pos_as_xyz
  1  'x, y, z'
loop_
 _atom_site_type_symbol
 _atom_site_label
 _atom_site_symmetry_multiplicity
 _atom_site_fract_x
 _atom_site_fract_y
 _atom_site_fract_z
 _atom_site_occupancy
  Nb  Nb0  1  0.00000000  0.00000000  0.00000000  1
  V  V1  1  0.00000000  0.24872300  0.24872300  1
  V  V2  1  0.00000000  0.75127700  0.75127700  1
  Re  Re3  1  0.00000000  0.50000000  0.50000000  1
