# generated using pymatgen
data_CeMg14Bi
_symmetry_space_group_name_H-M   'P 1'
_cell_length_a   6.55329393
_cell_length_b   6.55329393
_cell_length_c   10.78434900
_cell_angle_alpha   90.00000000
_cell_angle_beta   90.00000000
_cell_angle_gamma   119.99999928
_symmetry_Int_Tables_number   1
_chemical_formula_structural   CeMg14Bi
_chemical_formula_sum   'Ce1 Mg14 Bi1'
_cell_volume   401.09187415
_cell_formula_units_Z   1
loop_
 _symmetry_equiv_pos_site_id
 _symmetry_equiv_pos_as_xyz
  1  'x, y, z'
loop_
 _atom_site_type_symbol
 _atom_site_label
 _atom_site_symmetry_multiplicity
 _atom_site_fract_x
 _atom_site_fract_y
 _atom_site_fract_z
 _atom_site_occupancy
  Ce  Ce0  1  0.00000000  0.00000000  0.00000000  1
  Mg  Mg1  1  0.00866200  0.50433100  0.00000000  1
  Mg  Mg2  1  0.99633500  0.49816700  0.50000000  1
  Mg  Mg3  1  0.49566900  0.99133800  0.00000000  1
  Mg  Mg4  1  0.50183300  0.00366500  0.50000000  1
  Mg  Mg5  1  0.49566900  0.50433100  0.00000000  1
  Mg  Mg6  1  0.50183300  0.49816700  0.50000000  1
  Mg  Mg7  1  0.16748100  0.83251900  0.24982500  1
  Mg  Mg8  1  0.16748100  0.83251900  0.75017500  1
  Mg  Mg9  1  0.16748100  0.33496200  0.24982500  1
  Mg  Mg10  1  0.16748100  0.33496200  0.75017500  1
  Mg  Mg11  1  0.66503800  0.83251900  0.24982500  1
  Mg  Mg12  1  0.66503800  0.83251900  0.75017500  1
  Mg  Mg13  1  0.66666700  0.33333300  0.24278900  1
  Mg  Mg14  1  0.66666700  0.33333300  0.75721100  1
  Bi  Bi15  1  0.00000000  0.00000000  0.50000000  1
