# generated using pymatgen
data_KTeO4
_symmetry_space_group_name_H-M   'P 1'
_cell_length_a   7.08464665
_cell_length_b   7.08464665
_cell_length_c   5.17587072
_cell_angle_alpha   69.64579416
_cell_angle_beta   69.64579416
_cell_angle_gamma   109.00983914
_symmetry_Int_Tables_number   1
_chemical_formula_structural   KTeO4
_chemical_formula_sum   'K2 Te2 O8'
_cell_volume   196.67271293
_cell_formula_units_Z   2
loop_
 _symmetry_equiv_pos_site_id
 _symmetry_equiv_pos_as_xyz
  1  'x, y, z'
loop_
 _atom_site_type_symbol
 _atom_site_label
 _atom_site_symmetry_multiplicity
 _atom_site_fract_x
 _atom_site_fract_y
 _atom_site_fract_z
 _atom_site_occupancy
  K  K0  1  0.66168100  0.33831900  0.25000000  1
  K  K1  1  0.33831900  0.66168100  0.75000000  1
  Te  Te2  1  0.92374700  0.07625300  0.75000000  1
  Te  Te3  1  0.07625300  0.92374700  0.25000000  1
  O  O4  1  0.78739500  0.88759800  0.22231000  1
  O  O5  1  0.11240200  0.21260500  0.27769000  1
  O  O6  1  0.21260500  0.11240200  0.77769000  1
  O  O7  1  0.88759800  0.78739500  0.72231000  1
  O  O8  1  0.62743300  0.00064800  0.78413000  1
  O  O9  1  0.99935200  0.37256700  0.71587000  1
  O  O10  1  0.37256700  0.99935200  0.21587000  1
  O  O11  1  0.00064800  0.62743300  0.28413000  1
