# generated using pymatgen
data_VSiO4
_symmetry_space_group_name_H-M   'P 1'
_cell_length_a   9.70920652
_cell_length_b   9.70920652
_cell_length_c   9.70920652
_cell_angle_alpha   109.47122063
_cell_angle_beta   109.47122063
_cell_angle_gamma   109.47122063
_symmetry_Int_Tables_number   1
_chemical_formula_structural   VSiO4
_chemical_formula_sum   'V12 Si12 O48'
_cell_volume   704.57840206
_cell_formula_units_Z   12
loop_
 _symmetry_equiv_pos_site_id
 _symmetry_equiv_pos_as_xyz
  1  'x, y, z'
loop_
 _atom_site_type_symbol
 _atom_site_label
 _atom_site_symmetry_multiplicity
 _atom_site_fract_x
 _atom_site_fract_y
 _atom_site_fract_z
 _atom_site_occupancy
  V  V0  1  0.87500000  0.62500000  0.25000000  1
  V  V1  1  0.62500000  0.25000000  0.87500000  1
  V  V2  1  0.87500000  0.75000000  0.62500000  1
  V  V3  1  0.75000000  0.62500000  0.87500000  1
  V  V4  1  0.25000000  0.87500000  0.62500000  1
  V  V5  1  0.62500000  0.87500000  0.75000000  1
  V  V6  1  0.12500000  0.37500000  0.75000000  1
  V  V7  1  0.37500000  0.75000000  0.12500000  1
  V  V8  1  0.12500000  0.25000000  0.37500000  1
  V  V9  1  0.25000000  0.37500000  0.12500000  1
  V  V10  1  0.75000000  0.12500000  0.37500000  1
  V  V11  1  0.37500000  0.12500000  0.25000000  1
  Si  Si12  1  0.12500000  0.87500000  0.25000000  1
  Si  Si13  1  0.25000000  0.12500000  0.87500000  1
  Si  Si14  1  0.75000000  0.37500000  0.62500000  1
  Si  Si15  1  0.62500000  0.37500000  0.25000000  1
  Si  Si16  1  0.62500000  0.75000000  0.37500000  1
  Si  Si17  1  0.37500000  0.62500000  0.75000000  1
  Si  Si18  1  0.12500000  0.75000000  0.87500000  1
  Si  Si19  1  0.75000000  0.87500000  0.12500000  1
  Si  Si20  1  0.87500000  0.25000000  0.12500000  1
  Si  Si21  1  0.37500000  0.25000000  0.62500000  1
  Si  Si22  1  0.25000000  0.62500000  0.37500000  1
  Si  Si23  1  0.87500000  0.12500000  0.75000000  1
  O  O24  1  0.46422500  0.36970000  0.27393700  1
  O  O25  1  0.30971200  0.90547400  0.03577500  1
  O  O26  1  0.59452600  0.90423800  0.13030000  1
  O  O27  1  0.59576200  0.19028800  0.22606300  1
  O  O28  1  0.13030000  0.03577500  0.22606300  1
  O  O29  1  0.19028800  0.22606300  0.59576200  1
  O  O30  1  0.19028800  0.46422500  0.59452600  1
  O  O31  1  0.22606300  0.59576200  0.19028800  1
  O  O32  1  0.36970000  0.59576200  0.90547400  1
  O  O33  1  0.90423800  0.27393700  0.30971200  1
  O  O34  1  0.27393700  0.30971200  0.90423800  1
  O  O35  1  0.22606300  0.13030000  0.03577500  1
  O  O36  1  0.46422500  0.59452600  0.19028800  1
  O  O37  1  0.90547400  0.36970000  0.59576200  1
  O  O38  1  0.03577500  0.22606300  0.13030000  1
  O  O39  1  0.59452600  0.19028800  0.46422500  1
  O  O40  1  0.59576200  0.90547400  0.36970000  1
  O  O41  1  0.03577500  0.30971200  0.90547400  1
  O  O42  1  0.90423800  0.13030000  0.59452600  1
  O  O43  1  0.63030000  0.40423800  0.09452600  1
  O  O44  1  0.36970000  0.27393700  0.46422500  1
  O  O45  1  0.27393700  0.46422500  0.36970000  1
  O  O46  1  0.90547400  0.03577500  0.30971200  1
  O  O47  1  0.30971200  0.90423800  0.27393700  1
  O  O48  1  0.53577500  0.63030000  0.72606300  1
  O  O49  1  0.69028800  0.09452600  0.96422500  1
  O  O50  1  0.40547400  0.09576200  0.86970000  1
  O  O51  1  0.40423800  0.80971200  0.77393700  1
  O  O52  1  0.86970000  0.96422500  0.77393700  1
  O  O53  1  0.80971200  0.77393700  0.40423800  1
  O  O54  1  0.80971200  0.53577500  0.40547400  1
  O  O55  1  0.77393700  0.40423800  0.80971200  1
  O  O56  1  0.69028800  0.09576200  0.72606300  1
  O  O57  1  0.09452600  0.96422500  0.69028800  1
  O  O58  1  0.72606300  0.53577500  0.63030000  1
  O  O59  1  0.63030000  0.72606300  0.53577500  1
  O  O60  1  0.86970000  0.40547400  0.09576200  1
  O  O61  1  0.09576200  0.86970000  0.40547400  1
  O  O62  1  0.96422500  0.69028800  0.09452600  1
  O  O63  1  0.40423800  0.09452600  0.63030000  1
  O  O64  1  0.40547400  0.80971200  0.53577500  1
  O  O65  1  0.96422500  0.77393700  0.86970000  1
  O  O66  1  0.09452600  0.63030000  0.40423800  1
  O  O67  1  0.53577500  0.40547400  0.80971200  1
  O  O68  1  0.77393700  0.86970000  0.96422500  1
  O  O69  1  0.72606300  0.69028800  0.09576200  1
  O  O70  1  0.09576200  0.72606300  0.69028800  1
  O  O71  1  0.13030000  0.59452600  0.90423800  1
