data_image0
_chemical_formula_structural       CrRh2Te4
_chemical_formula_sum              "Cr1 Rh2 Te4"
_cell_length_a       4.07488
_cell_length_b       6.83538
_cell_length_c       7.05846
_cell_angle_alpha    120.163
_cell_angle_beta     90
_cell_angle_gamma    107.342

_space_group_name_H-M_alt    "P 1"
_space_group_IT_number       1

loop_
  _space_group_symop_operation_xyz
  'x, y, z'

loop_
  _atom_site_type_symbol
  _atom_site_label
  _atom_site_symmetry_multiplicity
  _atom_site_fract_x
  _atom_site_fract_y
  _atom_site_fract_z
  _atom_site_occupancy
  Cr  Cr1       1.0  0.00000  0.00000  0.00000  1.0000
  Rh  Rh1       1.0  0.25300  0.50600  0.26300  1.0000
  Rh  Rh2       1.0  0.74700  0.49400  0.73700  1.0000
  Te  Te1       1.0  0.37000  0.73900  0.03840  1.0000
  Te  Te2       1.0  0.12800  0.25600  0.46500  1.0000
  Te  Te3       1.0  0.87200  0.74400  0.53500  1.0000
  Te  Te4       1.0  0.63000  0.26100  0.96200  1.0000
