# generated using pymatgen
data_AlCu3HgSe4
_symmetry_space_group_name_H-M   'P 1'
_cell_length_a   5.89584500
_cell_length_b   5.89584500
_cell_length_c   5.89584500
_cell_angle_alpha   90.00000000
_cell_angle_beta   90.00000000
_cell_angle_gamma   90.00000000
_symmetry_Int_Tables_number   1
_chemical_formula_structural   AlCu3HgSe4
_chemical_formula_sum   'Al1 Cu3 Hg1 Se4'
_cell_volume   204.94539885
_cell_formula_units_Z   1
loop_
 _symmetry_equiv_pos_site_id
 _symmetry_equiv_pos_as_xyz
  1  'x, y, z'
loop_
 _atom_site_type_symbol
 _atom_site_label
 _atom_site_symmetry_multiplicity
 _atom_site_fract_x
 _atom_site_fract_y
 _atom_site_fract_z
 _atom_site_occupancy
  Al  Al0  1  0.00000000  0.00000000  0.00000000  1
  Cu  Cu1  1  0.00000000  0.50000000  0.00000000  1
  Cu  Cu2  1  0.00000000  0.00000000  0.50000000  1
  Cu  Cu3  1  0.50000000  0.00000000  0.00000000  1
  Hg  Hg4  1  0.50000000  0.50000000  0.50000000  1
  Se  Se5  1  0.23631900  0.23631900  0.23631900  1
  Se  Se6  1  0.76368100  0.76368100  0.23631900  1
  Se  Se7  1  0.23631900  0.76368100  0.76368100  1
  Se  Se8  1  0.76368100  0.23631900  0.76368100  1
