# generated using pymatgen
data_Eu3Mg
_symmetry_space_group_name_H-M   'P 1'
_cell_length_a   7.02090844
_cell_length_b   7.02090844
_cell_length_c   7.02090844
_cell_angle_alpha   145.54583723
_cell_angle_beta   130.10821093
_cell_angle_gamma   62.04277218
_symmetry_Int_Tables_number   1
_chemical_formula_structural   Eu3Mg
_chemical_formula_sum   'Eu3 Mg1'
_cell_volume   148.18405683
_cell_formula_units_Z   1
loop_
 _symmetry_equiv_pos_site_id
 _symmetry_equiv_pos_as_xyz
  1  'x, y, z'
loop_
 _atom_site_type_symbol
 _atom_site_label
 _atom_site_symmetry_multiplicity
 _atom_site_fract_x
 _atom_site_fract_y
 _atom_site_fract_z
 _atom_site_occupancy
  Eu  Eu0  1  0.80357000  0.72775700  0.07581300  1
  Eu  Eu1  1  0.08899600  0.50000000  0.58899600  1
  Eu  Eu2  1  0.34805600  0.27224300  0.07581300  1
  Mg  Mg3  1  0.59270500  0.00000000  0.59270500  1
