# generated using pymatgen
data_Os3O
_symmetry_space_group_name_H-M   'P 1'
_cell_length_a   4.21580740
_cell_length_b   4.21580740
_cell_length_c   4.21580740
_cell_angle_alpha   60.00000000
_cell_angle_beta   60.00000000
_cell_angle_gamma   60.00000000
_symmetry_Int_Tables_number   1
_chemical_formula_structural   Os3O
_chemical_formula_sum   'Os3 O1'
_cell_volume   52.98187057
_cell_formula_units_Z   1
loop_
 _symmetry_equiv_pos_site_id
 _symmetry_equiv_pos_as_xyz
  1  'x, y, z'
loop_
 _atom_site_type_symbol
 _atom_site_label
 _atom_site_symmetry_multiplicity
 _atom_site_fract_x
 _atom_site_fract_y
 _atom_site_fract_z
 _atom_site_occupancy
  Os  Os0  1  0.75000000  0.75000000  0.75000000  1
  Os  Os1  1  0.25000000  0.25000000  0.25000000  1
  Os  Os2  1  0.50000000  0.50000000  0.50000000  1
  O  O3  1  0.00000000  0.00000000  0.00000000  1
