# generated using pymatgen
data_Rb3Ta
_symmetry_space_group_name_H-M   'P 1'
_cell_length_a   7.18204641
_cell_length_b   7.18204641
_cell_length_c   7.18204641
_cell_angle_alpha   129.66233761
_cell_angle_beta   129.66233761
_cell_angle_gamma   73.94715335
_symmetry_Int_Tables_number   1
_chemical_formula_structural   Rb3Ta
_chemical_formula_sum   'Rb3 Ta1'
_cell_volume   214.12545844
_cell_formula_units_Z   1
loop_
 _symmetry_equiv_pos_site_id
 _symmetry_equiv_pos_as_xyz
  1  'x, y, z'
loop_
 _atom_site_type_symbol
 _atom_site_label
 _atom_site_symmetry_multiplicity
 _atom_site_fract_x
 _atom_site_fract_y
 _atom_site_fract_z
 _atom_site_occupancy
  Rb  Rb0  1  0.75000000  0.25000000  0.50000000  1
  Rb  Rb1  1  0.25000000  0.75000000  0.50000000  1
  Rb  Rb2  1  0.50000000  0.50000000  0.00000000  1
  Ta  Ta3  1  0.00000000  0.00000000  0.00000000  1
