# generated using pymatgen
data_Mg64Si31Bi
_symmetry_space_group_name_H-M   'P 1'
_cell_length_a   12.75334300
_cell_length_b   12.75334300
_cell_length_c   12.75334300
_cell_angle_alpha   90.00000000
_cell_angle_beta   90.00000000
_cell_angle_gamma   90.00000000
_symmetry_Int_Tables_number   1
_chemical_formula_structural   Mg64Si31Bi
_chemical_formula_sum   'Mg64 Si31 Bi1'
_cell_volume   2074.30264182
_cell_formula_units_Z   1
loop_
 _symmetry_equiv_pos_site_id
 _symmetry_equiv_pos_as_xyz
  1  'x, y, z'
loop_
 _atom_site_type_symbol
 _atom_site_label
 _atom_site_symmetry_multiplicity
 _atom_site_fract_x
 _atom_site_fract_y
 _atom_site_fract_z
 _atom_site_occupancy
  Mg  Mg0  1  0.87468600  0.62501300  0.37498700  1
  Mg  Mg1  1  0.62501300  0.62501300  0.12531400  1
  Mg  Mg2  1  0.62501300  0.87468600  0.37498700  1
  Mg  Mg3  1  0.87468600  0.37498700  0.62501300  1
  Mg  Mg4  1  0.62501300  0.37498700  0.87468600  1
  Mg  Mg5  1  0.62501300  0.12531400  0.62501300  1
  Mg  Mg6  1  0.12531400  0.62501300  0.62501300  1
  Mg  Mg7  1  0.37498700  0.62501300  0.87468600  1
  Mg  Mg8  1  0.37498700  0.87468600  0.62501300  1
  Mg  Mg9  1  0.12531400  0.37498700  0.37498700  1
  Mg  Mg10  1  0.37498700  0.37498700  0.12531400  1
  Mg  Mg11  1  0.37498700  0.12531400  0.37498700  1
  Mg  Mg12  1  0.12531400  0.37498700  0.62501300  1
  Mg  Mg13  1  0.37498700  0.37498700  0.87468600  1
  Mg  Mg14  1  0.37498700  0.12531400  0.62501300  1
  Mg  Mg15  1  0.12531400  0.62501300  0.37498700  1
  Mg  Mg16  1  0.37498700  0.62501300  0.12531400  1
  Mg  Mg17  1  0.37498700  0.87468600  0.37498700  1
  Mg  Mg18  1  0.87468600  0.37498700  0.37498700  1
  Mg  Mg19  1  0.62501300  0.37498700  0.12531400  1
  Mg  Mg20  1  0.62501300  0.12531400  0.37498700  1
  Mg  Mg21  1  0.87468600  0.62501300  0.62501300  1
  Mg  Mg22  1  0.62501300  0.62501300  0.87468600  1
  Mg  Mg23  1  0.62501300  0.87468600  0.62501300  1
  Mg  Mg24  1  0.37588800  0.87479200  0.12520800  1
  Mg  Mg25  1  0.87479200  0.87479200  0.62411200  1
  Mg  Mg26  1  0.87479200  0.37588800  0.12520800  1
  Mg  Mg27  1  0.37588800  0.12520800  0.87479200  1
  Mg  Mg28  1  0.87479200  0.12520800  0.37588800  1
  Mg  Mg29  1  0.87479200  0.62411200  0.87479200  1
  Mg  Mg30  1  0.62411200  0.87479200  0.87479200  1
  Mg  Mg31  1  0.12520800  0.87479200  0.37588800  1
  Mg  Mg32  1  0.12520800  0.37588800  0.87479200  1
  Mg  Mg33  1  0.62411200  0.12520800  0.12520800  1
  Mg  Mg34  1  0.12520800  0.12520800  0.62411200  1
  Mg  Mg35  1  0.12520800  0.62411200  0.12520800  1
  Mg  Mg36  1  0.62411200  0.12520800  0.87479200  1
  Mg  Mg37  1  0.12520800  0.12520800  0.37588800  1
  Mg  Mg38  1  0.12520800  0.62411200  0.87479200  1
  Mg  Mg39  1  0.62411200  0.87479200  0.12520800  1
  Mg  Mg40  1  0.12520800  0.87479200  0.62411200  1
  Mg  Mg41  1  0.12520800  0.37588800  0.12520800  1
  Mg  Mg42  1  0.37588800  0.12520800  0.12520800  1
  Mg  Mg43  1  0.87479200  0.12520800  0.62411200  1
  Mg  Mg44  1  0.87479200  0.62411200  0.12520800  1
  Mg  Mg45  1  0.37588800  0.87479200  0.87479200  1
  Mg  Mg46  1  0.87479200  0.87479200  0.37588800  1
  Mg  Mg47  1  0.87479200  0.37588800  0.87479200  1
  Mg  Mg48  1  0.37468200  0.62531800  0.37468200  1
  Mg  Mg49  1  0.62531800  0.62531800  0.62531800  1
  Mg  Mg50  1  0.62531800  0.37468200  0.37468200  1
  Mg  Mg51  1  0.37468200  0.37468200  0.62531800  1
  Mg  Mg52  1  0.62531800  0.37468200  0.62531800  1
  Mg  Mg53  1  0.37468200  0.37468200  0.37468200  1
  Mg  Mg54  1  0.37468200  0.62531800  0.62531800  1
  Mg  Mg55  1  0.62531800  0.62531800  0.37468200  1
  Mg  Mg56  1  0.13323000  0.13323000  0.86677000  1
  Mg  Mg57  1  0.13323000  0.86677000  0.13323000  1
  Mg  Mg58  1  0.86677000  0.13323000  0.13323000  1
  Mg  Mg59  1  0.86677000  0.86677000  0.86677000  1
  Mg  Mg60  1  0.86677000  0.86677000  0.13323000  1
  Mg  Mg61  1  0.86677000  0.13323000  0.86677000  1
  Mg  Mg62  1  0.13323000  0.86677000  0.86677000  1
  Mg  Mg63  1  0.13323000  0.13323000  0.13323000  1
  Si  Si64  1  0.50000000  0.50000000  0.50000000  1
  Si  Si65  1  0.50000000  0.50000000  0.00000000  1
  Si  Si66  1  0.50000000  0.00000000  0.50000000  1
  Si  Si67  1  0.00000000  0.50000000  0.50000000  1
  Si  Si68  1  0.50000000  0.00000000  0.00000000  1
  Si  Si69  1  0.00000000  0.00000000  0.50000000  1
  Si  Si70  1  0.00000000  0.50000000  0.00000000  1
  Si  Si71  1  0.50000000  0.75010500  0.24989500  1
  Si  Si72  1  0.75010500  0.75010500  0.50000000  1
  Si  Si73  1  0.75010500  0.50000000  0.24989500  1
  Si  Si74  1  0.50000000  0.24989500  0.75010500  1
  Si  Si75  1  0.75010500  0.24989500  0.50000000  1
  Si  Si76  1  0.75010500  0.50000000  0.75010500  1
  Si  Si77  1  0.50000000  0.75010500  0.75010500  1
  Si  Si78  1  0.24989500  0.75010500  0.50000000  1
  Si  Si79  1  0.24989500  0.50000000  0.75010500  1
  Si  Si80  1  0.50000000  0.24989500  0.24989500  1
  Si  Si81  1  0.24989500  0.24989500  0.50000000  1
  Si  Si82  1  0.24989500  0.50000000  0.24989500  1
  Si  Si83  1  0.74951100  0.00000000  0.25048900  1
  Si  Si84  1  0.00000000  0.74951100  0.25048900  1
  Si  Si85  1  0.74951100  0.74951100  0.00000000  1
  Si  Si86  1  0.74951100  0.00000000  0.74951100  1
  Si  Si87  1  0.00000000  0.25048900  0.74951100  1
  Si  Si88  1  0.74951100  0.25048900  0.00000000  1
  Si  Si89  1  0.25048900  0.00000000  0.74951100  1
  Si  Si90  1  0.00000000  0.74951100  0.74951100  1
  Si  Si91  1  0.25048900  0.74951100  0.00000000  1
  Si  Si92  1  0.25048900  0.00000000  0.25048900  1
  Si  Si93  1  0.00000000  0.25048900  0.25048900  1
  Si  Si94  1  0.25048900  0.25048900  0.00000000  1
  Bi  Bi95  1  0.00000000  0.00000000  0.00000000  1
