# generated using pymatgen
data_CaTlI3
_symmetry_space_group_name_H-M   'P 1'
_cell_length_a   7.99887617
_cell_length_b   7.99887617
_cell_length_c   11.76035800
_cell_angle_alpha   90.00000000
_cell_angle_beta   90.00000000
_cell_angle_gamma   146.40172920
_symmetry_Int_Tables_number   1
_chemical_formula_structural   CaTlI3
_chemical_formula_sum   'Ca2 Tl2 I6'
_cell_volume   416.38136416
_cell_formula_units_Z   2
loop_
 _symmetry_equiv_pos_site_id
 _symmetry_equiv_pos_as_xyz
  1  'x, y, z'
loop_
 _atom_site_type_symbol
 _atom_site_label
 _atom_site_symmetry_multiplicity
 _atom_site_fract_x
 _atom_site_fract_y
 _atom_site_fract_z
 _atom_site_occupancy
  Ca  Ca0  1  0.00000000  0.00000000  0.00000000  1
  Ca  Ca1  1  0.00000000  0.00000000  0.50000000  1
  Tl  Tl2  1  0.24947500  0.75052500  0.25000000  1
  Tl  Tl3  1  0.75052500  0.24947500  0.75000000  1
  I  I4  1  0.63524600  0.36475400  0.05448100  1
  I  I5  1  0.36475400  0.63524600  0.94551900  1
  I  I6  1  0.36475400  0.63524600  0.55448100  1
  I  I7  1  0.63524600  0.36475400  0.44551900  1
  I  I8  1  0.92261600  0.07738400  0.25000000  1
  I  I9  1  0.07738400  0.92261600  0.75000000  1
