# generated using pymatgen
data_Cs2RbPdF6
_symmetry_space_group_name_H-M   'P 1'
_cell_length_a   6.61274700
_cell_length_b   6.61274700
_cell_length_c   6.78592186
_cell_angle_alpha   119.15933984
_cell_angle_beta   119.15933984
_cell_angle_gamma   90.00000000
_symmetry_Int_Tables_number   1
_chemical_formula_structural   Cs2RbPdF6
_chemical_formula_sum   'Cs2 Rb1 Pd1 F6'
_cell_volume   215.04663232
_cell_formula_units_Z   1
loop_
 _symmetry_equiv_pos_site_id
 _symmetry_equiv_pos_as_xyz
  1  'x, y, z'
loop_
 _atom_site_type_symbol
 _atom_site_label
 _atom_site_symmetry_multiplicity
 _atom_site_fract_x
 _atom_site_fract_y
 _atom_site_fract_z
 _atom_site_occupancy
  Cs  Cs0  1  0.25000000  0.75000000  0.50000000  1
  Cs  Cs1  1  0.75000000  0.25000000  0.50000000  1
  Rb  Rb2  1  0.50000000  0.50000000  0.00000000  1
  Pd  Pd3  1  0.00000000  0.00000000  0.00000000  1
  F  F4  1  0.21414700  0.21414700  0.00000000  1
  F  F5  1  0.78585300  0.78585300  0.00000000  1
  F  F6  1  0.78585300  0.21414700  0.00000000  1
  F  F7  1  0.21414700  0.78585300  0.00000000  1
  F  F8  1  0.22675000  0.22675000  0.45350000  1
  F  F9  1  0.77325000  0.77325000  0.54650000  1
