# generated using pymatgen
data_Yb(ErSe2)2
_symmetry_space_group_name_H-M   'P 1'
_cell_length_a   4.09684400
_cell_length_b   6.99506800
_cell_length_c   7.18054315
_cell_angle_alpha   72.00296048
_cell_angle_beta   90.00000000
_cell_angle_gamma   90.00000000
_symmetry_Int_Tables_number   1
_chemical_formula_structural   Yb(ErSe2)2
_chemical_formula_sum   'Yb1 Er2 Se4'
_cell_volume   195.70966817
_cell_formula_units_Z   1
loop_
 _symmetry_equiv_pos_site_id
 _symmetry_equiv_pos_as_xyz
  1  'x, y, z'
loop_
 _atom_site_type_symbol
 _atom_site_label
 _atom_site_symmetry_multiplicity
 _atom_site_fract_x
 _atom_site_fract_y
 _atom_site_fract_z
 _atom_site_occupancy
  Yb  Yb0  1  0.00000000  0.50000000  0.50000000  1
  Er  Er1  1  0.00000000  0.00000000  0.00000000  1
  Er  Er2  1  0.50000000  0.50000000  0.00000000  1
  Se  Se3  1  0.50000000  0.75781200  0.24196100  1
  Se  Se4  1  0.00000000  0.25823600  0.23170400  1
  Se  Se5  1  0.50000000  0.24218800  0.75803900  1
  Se  Se6  1  0.00000000  0.74176400  0.76829600  1
