# generated using pymatgen
data_SrCa4(FeO2)5
_symmetry_space_group_name_H-M   'P 1'
_cell_length_a   4.02390000
_cell_length_b   4.02390000
_cell_length_c   16.41464900
_cell_angle_alpha   90.00000000
_cell_angle_beta   90.00000000
_cell_angle_gamma   90.00000000
_symmetry_Int_Tables_number   1
_chemical_formula_structural   SrCa4(FeO2)5
_chemical_formula_sum   'Sr1 Ca4 Fe5 O10'
_cell_volume   265.78224110
_cell_formula_units_Z   1
loop_
 _symmetry_equiv_pos_site_id
 _symmetry_equiv_pos_as_xyz
  1  'x, y, z'
loop_
 _atom_site_type_symbol
 _atom_site_label
 _atom_site_symmetry_multiplicity
 _atom_site_fract_x
 _atom_site_fract_y
 _atom_site_fract_z
 _atom_site_occupancy
  Sr  Sr0  1  0.50000000  0.50000000  0.00000000  1
  Ca  Ca1  1  0.50000000  0.50000000  0.20276400  1
  Ca  Ca2  1  0.50000000  0.50000000  0.40051300  1
  Ca  Ca3  1  0.50000000  0.50000000  0.59948700  1
  Ca  Ca4  1  0.50000000  0.50000000  0.79723600  1
  Fe  Fe5  1  0.00000000  0.00000000  0.89361500  1
  Fe  Fe6  1  0.00000000  0.00000000  0.10638500  1
  Fe  Fe7  1  0.00000000  0.00000000  0.30080200  1
  Fe  Fe8  1  0.00000000  0.00000000  0.50000000  1
  Fe  Fe9  1  0.00000000  0.00000000  0.69919800  1
  O  O10  1  0.00000000  0.50000000  0.10603700  1
  O  O11  1  0.00000000  0.50000000  0.30112800  1
  O  O12  1  0.00000000  0.50000000  0.50000000  1
  O  O13  1  0.00000000  0.50000000  0.69887200  1
  O  O14  1  0.00000000  0.50000000  0.89396300  1
  O  O15  1  0.50000000  0.00000000  0.10603700  1
  O  O16  1  0.50000000  0.00000000  0.30112800  1
  O  O17  1  0.50000000  0.00000000  0.50000000  1
  O  O18  1  0.50000000  0.00000000  0.69887200  1
  O  O19  1  0.50000000  0.00000000  0.89396300  1
