# generated using pymatgen
data_Sn2GeTe3
_symmetry_space_group_name_H-M   'P 1'
_cell_length_a   4.42633067
_cell_length_b   4.42633067
_cell_length_c   10.98346400
_cell_angle_alpha   90.00000000
_cell_angle_beta   90.00000000
_cell_angle_gamma   120.00001002
_symmetry_Int_Tables_number   1
_chemical_formula_structural   Sn2GeTe3
_chemical_formula_sum   'Sn2 Ge1 Te3'
_cell_volume   186.36211416
_cell_formula_units_Z   1
loop_
 _symmetry_equiv_pos_site_id
 _symmetry_equiv_pos_as_xyz
  1  'x, y, z'
loop_
 _atom_site_type_symbol
 _atom_site_label
 _atom_site_symmetry_multiplicity
 _atom_site_fract_x
 _atom_site_fract_y
 _atom_site_fract_z
 _atom_site_occupancy
  Sn  Sn0  1  0.33333300  0.66666700  0.82713500  1
  Sn  Sn1  1  0.66666700  0.33333300  0.17286500  1
  Ge  Ge2  1  0.00000000  0.00000000  0.50000000  1
  Te  Te3  1  0.33333300  0.66666700  0.34809200  1
  Te  Te4  1  0.66666700  0.33333300  0.65190800  1
  Te  Te5  1  0.00000000  0.00000000  0.00000000  1
