# generated using pymatgen
data_SmV2Fe10N
_symmetry_space_group_name_H-M   'P 1'
_cell_length_a   6.46546178
_cell_length_b   6.46546178
_cell_length_c   6.46546178
_cell_angle_alpha   136.70641252
_cell_angle_beta   98.26303125
_cell_angle_gamma   97.37903848
_symmetry_Int_Tables_number   1
_chemical_formula_structural   SmV2Fe10N
_chemical_formula_sum   'Sm1 V2 Fe10 N1'
_cell_volume   172.25709952
_cell_formula_units_Z   1
loop_
 _symmetry_equiv_pos_site_id
 _symmetry_equiv_pos_as_xyz
  1  'x, y, z'
loop_
 _atom_site_type_symbol
 _atom_site_label
 _atom_site_symmetry_multiplicity
 _atom_site_fract_x
 _atom_site_fract_y
 _atom_site_fract_z
 _atom_site_occupancy
  Sm  Sm0  1  0.00000000  0.00000000  0.00000000  1
  V  V1  1  0.63982700  0.00000000  0.63982700  1
  V  V2  1  0.36017300  0.00000000  0.36017300  1
  Fe  Fe3  1  0.77200300  0.27200300  0.50000000  1
  Fe  Fe4  1  0.22799700  0.72799700  0.50000000  1
  Fe  Fe5  1  0.22298300  0.50000000  0.72298300  1
  Fe  Fe6  1  0.77701700  0.50000000  0.27701700  1
  Fe  Fe7  1  0.50000000  0.00000000  0.00000000  1
  Fe  Fe8  1  0.50000000  0.50000000  0.50000000  1
  Fe  Fe9  1  0.00000000  0.00000000  0.50000000  1
  Fe  Fe10  1  0.00000000  0.50000000  0.00000000  1
  Fe  Fe11  1  0.37127400  0.37127400  0.00000000  1
  Fe  Fe12  1  0.62872600  0.62872600  0.00000000  1
  N  N13  1  0.00000000  0.50000000  0.50000000  1
