# generated using pymatgen
data_Mg2CuSi3
_symmetry_space_group_name_H-M   'P 1'
_cell_length_a   4.93971990
_cell_length_b   4.93971990
_cell_length_c   4.93971937
_cell_angle_alpha   65.38280111
_cell_angle_beta   65.38280111
_cell_angle_gamma   65.38280281
_symmetry_Int_Tables_number   1
_chemical_formula_structural   Mg2CuSi3
_chemical_formula_sum   'Mg2 Cu1 Si3'
_cell_volume   95.21421047
_cell_formula_units_Z   1
loop_
 _symmetry_equiv_pos_site_id
 _symmetry_equiv_pos_as_xyz
  1  'x, y, z'
loop_
 _atom_site_type_symbol
 _atom_site_label
 _atom_site_symmetry_multiplicity
 _atom_site_fract_x
 _atom_site_fract_y
 _atom_site_fract_z
 _atom_site_occupancy
  Mg  Mg0  1  0.62728500  0.62728500  0.62728500  1
  Mg  Mg1  1  0.37271500  0.37271500  0.37271500  1
  Cu  Cu2  1  0.00000000  0.00000000  0.00000000  1
  Si  Si3  1  0.00000000  0.50000000  0.00000000  1
  Si  Si4  1  0.50000000  0.00000000  0.00000000  1
  Si  Si5  1  0.00000000  0.00000000  0.50000000  1
