# generated using pymatgen
data_InCuSe2
_symmetry_space_group_name_H-M   'P 1'
_cell_length_a   4.16120461
_cell_length_b   5.85374300
_cell_length_c   4.16120461
_cell_angle_alpha   90.00000000
_cell_angle_beta   90.00000000
_cell_angle_gamma   90.00000000
_symmetry_Int_Tables_number   1
_chemical_formula_structural   InCuSe2
_chemical_formula_sum   'In1 Cu1 Se2'
_cell_volume   101.36121181
_cell_formula_units_Z   1
loop_
 _symmetry_equiv_pos_site_id
 _symmetry_equiv_pos_as_xyz
  1  'x, y, z'
loop_
 _atom_site_type_symbol
 _atom_site_label
 _atom_site_symmetry_multiplicity
 _atom_site_fract_x
 _atom_site_fract_y
 _atom_site_fract_z
 _atom_site_occupancy
  In  In0  1  0.50000000  0.50000000  0.50000000  1
  Cu  Cu1  1  0.00000000  0.00000000  0.00000000  1
  Se  Se2  1  0.50000000  0.78116400  0.00000000  1
  Se  Se3  1  0.00000000  0.21883600  0.50000000  1
