# generated using pymatgen
data_Hf4N3
_symmetry_space_group_name_H-M   'P 1'
_cell_length_a   10.72567483
_cell_length_b   10.72567483
_cell_length_c   10.72567495
_cell_angle_alpha   17.13718819
_cell_angle_beta   17.13718819
_cell_angle_gamma   17.13718606
_symmetry_Int_Tables_number   1
_chemical_formula_structural   Hf4N3
_chemical_formula_sum   'Hf4 N3'
_cell_volume   93.47035980
_cell_formula_units_Z   1
loop_
 _symmetry_equiv_pos_site_id
 _symmetry_equiv_pos_as_xyz
  1  'x, y, z'
loop_
 _atom_site_type_symbol
 _atom_site_label
 _atom_site_symmetry_multiplicity
 _atom_site_fract_x
 _atom_site_fract_y
 _atom_site_fract_z
 _atom_site_occupancy
  Hf  Hf0  1  0.62560100  0.62560100  0.62560100  1
  Hf  Hf1  1  0.37482600  0.37482600  0.37482600  1
  Hf  Hf2  1  0.79104000  0.79104000  0.79104000  1
  Hf  Hf3  1  0.20638100  0.20638100  0.20638100  1
  N  N4  1  0.50070400  0.50070400  0.50070400  1
  N  N5  1  0.00188000  0.00188000  0.00188000  1
  N  N6  1  0.91456800  0.91456800  0.91456800  1
