data_image0
_chemical_formula_structural       B6Fe2U
_chemical_formula_sum              "B6 Fe2 U1"
_cell_length_a       3.10964
_cell_length_b       5.33833
_cell_length_c       5.33833
_cell_angle_alpha    100.225
_cell_angle_beta     106.933
_cell_angle_gamma    106.933

_space_group_name_H-M_alt    "P 1"
_space_group_IT_number       1

loop_
  _space_group_symop_operation_xyz
  'x, y, z'

loop_
  _atom_site_type_symbol
  _atom_site_label
  _atom_site_symmetry_multiplicity
  _atom_site_fract_x
  _atom_site_fract_y
  _atom_site_fract_z
  _atom_site_occupancy
  B   B1        1.0  0.74000  0.43600  0.04340  1.0000
  B   B2        1.0  0.64500  0.14500  0.14500  1.0000
  B   B3        1.0  0.74000  0.04340  0.43600  1.0000
  B   B4        1.0  0.26000  0.95700  0.56400  1.0000
  B   B5        1.0  0.35500  0.85500  0.85500  1.0000
  B   B6        1.0  0.26000  0.56400  0.95700  1.0000
  Fe  Fe1       1.0  0.00000  0.84800  0.15200  1.0000
  Fe  Fe2       1.0  0.00000  0.15200  0.84800  1.0000
  U   U1        1.0  0.50000  0.50000  0.50000  1.0000
