CIF file written using JARVIS-Tools package.
data_Tb2SeO2
_symmetry_space_group_name_H-M  'P-3m1'
_cell_length_a       3.8577
_cell_length_b       3.8577
_cell_length_c       6.84062
_cell_angle_alpha    90
_cell_angle_beta     90
_cell_angle_gamma    120

_symmetry_Int_Tables_number  164
_chemical_formula_structural  Tb2SeO2
_chemical_formula_sum  Tb2SeO2
_cell_volume  88.16257842224749
_cell_formula_units_Z  1
loop_
  _symmetry_equiv_pos_site_id
 _symmetry_equiv_pos_as_xyz
 1  'x, y, z'
loop_
 _atom_site_type_symbol
 _atom_site_label
 _atom_site_symmetry_multiplicity
 _atom_site_fract_x
 _atom_site_fract_y
 _atom_site_fract_z
 _atom_site_fract_occupancy
 O  O1  1  0.66667  0.33333  0.62586  1
 O  O2  1  0.33333  0.66667  0.37414  1
 Se  Se1  1  0.00000  0.00000  0.00000  1
 Tb  Tb1  1  0.66667  0.33333  0.28989  1
 Tb  Tb2  1  0.33333  0.66667  0.71011  1
