CIF file written using JARVIS-Tools package.
data_Fe11Co5
_symmetry_space_group_name_H-M  'P4/mmm'
_cell_length_a       5.68102
_cell_length_b       5.68102
_cell_length_c       5.66738
_cell_angle_alpha    90
_cell_angle_beta     90
_cell_angle_gamma    90

_symmetry_Int_Tables_number  123
_chemical_formula_structural  Fe11Co5
_chemical_formula_sum  FeCo5
_cell_volume  182.90901567308748
_cell_formula_units_Z  1
loop_
  _symmetry_equiv_pos_site_id
 _symmetry_equiv_pos_as_xyz
 1  'x, y, z'
loop_
 _atom_site_type_symbol
 _atom_site_label
 _atom_site_symmetry_multiplicity
 _atom_site_fract_x
 _atom_site_fract_y
 _atom_site_fract_z
 _atom_site_fract_occupancy
 Co  Co1  1  0.50000  0.00000  0.00000  1
 Co  Co2  1  0.00000  0.50000  0.50000  1
 Co  Co3  1  0.00000  0.50000  0.00000  1
 Co  Co4  1  0.00000  0.00000  0.00000  1
 Co  Co5  1  0.50000  0.00000  0.50000  1
 Fe  Fe1  1  0.24978  0.24978  0.24994  1
 Fe  Fe2  1  0.24978  0.75022  0.75006  1
 Fe  Fe3  1  0.75022  0.24978  0.24994  1
 Fe  Fe4  1  0.75022  0.24978  0.75006  1
 Fe  Fe5  1  0.50000  0.50000  0.00000  1
 Fe  Fe6  1  0.24978  0.75022  0.24994  1
 Fe  Fe7  1  0.24978  0.24978  0.75006  1
 Fe  Fe8  1  0.75022  0.75022  0.24994  1
 Fe  Fe9  1  0.50000  0.50000  0.50000  1
 Fe  Fe10  1  0.00000  0.00000  0.50000  1
 Fe  Fe11  1  0.75022  0.75022  0.75006  1
