CIF file written using JARVIS-Tools package.
data_Ba4NiBr
_symmetry_space_group_name_H-M  'F-43m'
_cell_length_a       8.10704
_cell_length_b       8.10704
_cell_length_c       8.10704
_cell_angle_alpha    60
_cell_angle_beta     60
_cell_angle_gamma    60

_symmetry_Int_Tables_number  216
_chemical_formula_structural  Ba4NiBr
_chemical_formula_sum  Ba4NiBr
_cell_volume  376.76611955209177
_cell_formula_units_Z  1
loop_
  _symmetry_equiv_pos_site_id
 _symmetry_equiv_pos_as_xyz
 1  'x, y, z'
loop_
 _atom_site_type_symbol
 _atom_site_label
 _atom_site_symmetry_multiplicity
 _atom_site_fract_x
 _atom_site_fract_y
 _atom_site_fract_z
 _atom_site_fract_occupancy
 Ba  Ba1  1  0.12426  0.62525  0.62525  1
 Ba  Ba2  1  0.62525  0.62525  0.62525  1
 Ba  Ba3  1  0.62525  0.12426  0.62525  1
 Ba  Ba4  1  0.62525  0.62525  0.12426  1
 Br  Br1  1  0.25000  0.25000  0.25000  1
 Ni  Ni1  1  0.00000  0.00000  0.00000  1
