CIF file written using JARVIS-Tools package.
data_YbIn2Pt
_symmetry_space_group_name_H-M  'Cmcm'
_cell_length_a       4.35114
_cell_length_b       5.5717
_cell_length_c       8.07126
_cell_angle_alpha    90
_cell_angle_beta     90
_cell_angle_gamma    112.984

_symmetry_Int_Tables_number  63
_chemical_formula_structural  YbIn2Pt
_chemical_formula_sum  Yb2In4Pt2
_cell_volume  180.14014911033865
_cell_formula_units_Z  2
loop_
  _symmetry_equiv_pos_site_id
 _symmetry_equiv_pos_as_xyz
 1  'x, y, z'
loop_
 _atom_site_type_symbol
 _atom_site_label
 _atom_site_symmetry_multiplicity
 _atom_site_fract_x
 _atom_site_fract_y
 _atom_site_fract_z
 _atom_site_fract_occupancy
 In  In1  1  0.14137  0.28274  0.44948  1
 In  In2  1  0.85863  0.71726  0.55052  1
 In  In3  1  0.14137  0.28274  0.05052  1
 In  In4  1  0.85863  0.71726  0.94948  1
 Pt  Pt1  1  0.71927  0.43855  0.25000  1
 Pt  Pt2  1  0.28073  0.56145  0.75000  1
 Yb  Yb1  1  0.43054  0.86109  0.25000  1
 Yb  Yb2  1  0.56946  0.13891  0.75000  1
