CIF file written using JARVIS-Tools package.
data_SmSi2Rh3
_symmetry_space_group_name_H-M  'P6/mmm'
_cell_length_a       5.56835
_cell_length_b       5.56834
_cell_length_c       3.67912
_cell_angle_alpha    90
_cell_angle_beta     90
_cell_angle_gamma    120

_symmetry_Int_Tables_number  191
_chemical_formula_structural  SmSi2Rh3
_chemical_formula_sum  SmSi2Rh3
_cell_volume  98.79342029491691
_cell_formula_units_Z  1
loop_
  _symmetry_equiv_pos_site_id
 _symmetry_equiv_pos_as_xyz
 1  'x, y, z'
loop_
 _atom_site_type_symbol
 _atom_site_label
 _atom_site_symmetry_multiplicity
 _atom_site_fract_x
 _atom_site_fract_y
 _atom_site_fract_z
 _atom_site_fract_occupancy
 Rh  Rh1  1  0.50000  0.50000  0.50000  1
 Rh  Rh2  1  0.50000  0.00000  0.50000  1
 Rh  Rh3  1  -0.00000  0.50000  0.50000  1
 Si  Si1  1  0.66667  0.33333  0.00000  1
 Si  Si2  1  0.33333  0.66667  0.00000  1
 Sm  Sm1  1  0.00000  0.00000  0.00000  1
