CIF file written using JARVIS-Tools package.
data_ZnSeO4
_symmetry_space_group_name_H-M  'Cmcm'
_cell_length_a       4.94375
_cell_length_b       4.94375
_cell_length_c       6.57006
_cell_angle_alpha    90
_cell_angle_beta     90
_cell_angle_gamma    68.2717

_symmetry_Int_Tables_number  63
_chemical_formula_structural  ZnSeO4
_chemical_formula_sum  Zn2Se2O8
_cell_volume  149.16775018846707
_cell_formula_units_Z  2
loop_
  _symmetry_equiv_pos_site_id
 _symmetry_equiv_pos_as_xyz
 1  'x, y, z'
loop_
 _atom_site_type_symbol
 _atom_site_label
 _atom_site_symmetry_multiplicity
 _atom_site_fract_x
 _atom_site_fract_y
 _atom_site_fract_z
 _atom_site_fract_occupancy
 O  O1  1  0.27701  0.77033  0.75000  1
 O  O2  1  0.22967  0.72299  0.25000  1
 O  O3  1  0.24652  0.24652  0.03570  1
 O  O4  1  0.24652  0.24652  0.46430  1
 O  O5  1  0.75348  0.75348  0.53570  1
 O  O6  1  0.75348  0.75348  0.96430  1
 O  O7  1  0.72299  0.22967  0.25000  1
 O  O8  1  0.77033  0.27701  0.75000  1
 Se  Se1  1  0.35312  0.35312  0.25000  1
 Se  Se2  1  0.64688  0.64688  0.75000  1
 Zn  Zn1  1  0.00000  0.00000  0.00000  1
 Zn  Zn2  1  0.00000  0.00000  0.50000  1
