CIF file written using JARVIS-Tools package.
data_Ba4SrIr
_symmetry_space_group_name_H-M  'F-43m'
_cell_length_a       7.03533
_cell_length_b       7.03533
_cell_length_c       7.03533
_cell_angle_alpha    60
_cell_angle_beta     60
_cell_angle_gamma    60

_symmetry_Int_Tables_number  216
_chemical_formula_structural  Ba4SrIr
_chemical_formula_sum  Ba4SrIr
_cell_volume  246.22927785024268
_cell_formula_units_Z  1
loop_
  _symmetry_equiv_pos_site_id
 _symmetry_equiv_pos_as_xyz
 1  'x, y, z'
loop_
 _atom_site_type_symbol
 _atom_site_label
 _atom_site_symmetry_multiplicity
 _atom_site_fract_x
 _atom_site_fract_y
 _atom_site_fract_z
 _atom_site_fract_occupancy
 Ba  Ba1  1  0.13336  0.62221  0.62221  1
 Ba  Ba2  1  0.62221  0.62221  0.62221  1
 Ba  Ba3  1  0.62221  0.13336  0.62221  1
 Ba  Ba4  1  0.62221  0.62221  0.13336  1
 Ir  Ir1  1  0.25000  0.25000  0.25000  1
 Sr  Sr1  1  0.00000  0.00000  0.00000  1
