CIF file written using JARVIS-Tools package.
data_Ba2HfO4
_symmetry_space_group_name_H-M  'I4/mmm'
_cell_length_a       4.17544
_cell_length_b       4.17544
_cell_length_c       7.41031
_cell_angle_alpha    73.6364
_cell_angle_beta     73.6364
_cell_angle_gamma    90

_symmetry_Int_Tables_number  139
_chemical_formula_structural  Ba2HfO4
_chemical_formula_sum  Ba2HfO4
_cell_volume  118.496578168413
_cell_formula_units_Z  1
loop_
  _symmetry_equiv_pos_site_id
 _symmetry_equiv_pos_as_xyz
 1  'x, y, z'
loop_
 _atom_site_type_symbol
 _atom_site_label
 _atom_site_symmetry_multiplicity
 _atom_site_fract_x
 _atom_site_fract_y
 _atom_site_fract_z
 _atom_site_fract_occupancy
 Ba  Ba1  1  0.35247  0.35247  0.29506  1
 Ba  Ba2  1  0.64753  0.64753  0.70494  1
 Hf  Hf1  1  0.00000  0.00000  0.00000  1
 O  O1  1  0.50000  0.00000  0.00000  1
 O  O2  1  0.00000  0.50000  0.00000  1
 O  O3  1  0.15541  0.15541  0.68918  1
 O  O4  1  0.84459  0.84459  0.31082  1
