CIF file written using JARVIS-Tools package.
data_PbI2
_symmetry_space_group_name_H-M  'R-3m'
_cell_length_a       7.5734
_cell_length_b       7.5734
_cell_length_c       7.5734
_cell_angle_alpha    35.2212
_cell_angle_beta     35.2212
_cell_angle_gamma    35.2212

_symmetry_Int_Tables_number  166
_chemical_formula_structural  PbI2
_chemical_formula_sum  PbI2
_cell_volume  129.05776583403178
_cell_formula_units_Z  1
loop_
  _symmetry_equiv_pos_site_id
 _symmetry_equiv_pos_as_xyz
 1  'x, y, z'
loop_
 _atom_site_type_symbol
 _atom_site_label
 _atom_site_symmetry_multiplicity
 _atom_site_fract_x
 _atom_site_fract_y
 _atom_site_fract_z
 _atom_site_fract_occupancy
 I  I1  1  0.75581  0.75581  0.75581  1
 I  I2  1  0.24419  0.24419  0.24419  1
 Pb  Pb1  1  0.00000  0.00000  0.00000  1
