CIF file written using JARVIS-Tools package.
data_TmNiC2
_symmetry_space_group_name_H-M  'Amm2'
_cell_length_a       3.48793
_cell_length_b       3.74684
_cell_length_c       3.74684
_cell_angle_alpha    106.26
_cell_angle_beta     90
_cell_angle_gamma    90

_symmetry_Int_Tables_number  38
_chemical_formula_structural  TmNiC2
_chemical_formula_sum  TmNiC2
_cell_volume  47.007823235683524
_cell_formula_units_Z  1
loop_
  _symmetry_equiv_pos_site_id
 _symmetry_equiv_pos_as_xyz
 1  'x, y, z'
loop_
 _atom_site_type_symbol
 _atom_site_label
 _atom_site_symmetry_multiplicity
 _atom_site_fract_x
 _atom_site_fract_y
 _atom_site_fract_z
 _atom_site_fract_occupancy
 C  C1  1  0.50000  0.45486  0.84914  1
 C  C2  1  0.50000  0.15086  0.54514  1
 Ni  Ni1  1  0.50000  0.61433  0.38567  1
 Tm  Tm1  1  0.00000  0.00194  0.99806  1
