CIF file written using JARVIS-Tools package.
data_MnS
_symmetry_space_group_name_H-M  'P6_3mc'
_cell_length_a       3.98137
_cell_length_b       3.98137
_cell_length_c       6.44387
_cell_angle_alpha    90
_cell_angle_beta     90
_cell_angle_gamma    120

_symmetry_Int_Tables_number  186
_chemical_formula_structural  MnS
_chemical_formula_sum  Mn2S2
_cell_volume  88.45941552822751
_cell_formula_units_Z  2
loop_
  _symmetry_equiv_pos_site_id
 _symmetry_equiv_pos_as_xyz
 1  'x, y, z'
loop_
 _atom_site_type_symbol
 _atom_site_label
 _atom_site_symmetry_multiplicity
 _atom_site_fract_x
 _atom_site_fract_y
 _atom_site_fract_z
 _atom_site_fract_occupancy
 Mn  Mn1  1  0.33333  0.66667  0.00153  1
 Mn  Mn2  1  0.66667  0.33333  0.50153  1
 S  S1  1  0.66667  0.33333  0.12346  1
 S  S2  1  0.33333  0.66667  0.62346  1
