CIF file written using JARVIS-Tools package.
data_CaGaGe
_symmetry_space_group_name_H-M  'P6_3/mmc'
_cell_length_a       4.23473
_cell_length_b       4.23472
_cell_length_c       17.2806
_cell_angle_alpha    90
_cell_angle_beta     90
_cell_angle_gamma    120

_symmetry_Int_Tables_number  194
_chemical_formula_structural  CaGaGe
_chemical_formula_sum  Ca4Ga4Ge4
_cell_volume  268.373063898264
_cell_formula_units_Z  4
loop_
  _symmetry_equiv_pos_site_id
 _symmetry_equiv_pos_as_xyz
 1  'x, y, z'
loop_
 _atom_site_type_symbol
 _atom_site_label
 _atom_site_symmetry_multiplicity
 _atom_site_fract_x
 _atom_site_fract_y
 _atom_site_fract_z
 _atom_site_fract_occupancy
 Ca  Ca1  1  0.00000  0.00000  0.00000  1
 Ca  Ca2  1  0.00000  0.00000  0.50000  1
 Ca  Ca3  1  0.00000  0.00000  0.25000  1
 Ca  Ca4  1  0.00000  0.00000  0.75000  1
 Ga  Ga1  1  0.33333  0.66667  0.15436  1
 Ga  Ga2  1  0.66667  0.33333  0.65436  1
 Ga  Ga3  1  0.66667  0.33333  0.84564  1
 Ga  Ga4  1  0.33333  0.66667  0.34564  1
 Ge  Ge1  1  0.33333  0.66667  0.60943  1
 Ge  Ge2  1  0.66667  0.33333  0.10943  1
 Ge  Ge3  1  0.66667  0.33333  0.39057  1
 Ge  Ge4  1  0.33333  0.66667  0.89057  1
