CIF file written using JARVIS-Tools package.
data_TmSiAg
_symmetry_space_group_name_H-M  'P-62m'
_cell_length_a       4.13742
_cell_length_b       6.98963
_cell_length_c       6.98962
_cell_angle_alpha    120
_cell_angle_beta     90
_cell_angle_gamma    90

_symmetry_Int_Tables_number  189
_chemical_formula_structural  TmSiAg
_chemical_formula_sum  Tm3Si3Ag3
_cell_volume  175.0523572427402
_cell_formula_units_Z  3
loop_
  _symmetry_equiv_pos_site_id
 _symmetry_equiv_pos_as_xyz
 1  'x, y, z'
loop_
 _atom_site_type_symbol
 _atom_site_label
 _atom_site_symmetry_multiplicity
 _atom_site_fract_x
 _atom_site_fract_y
 _atom_site_fract_z
 _atom_site_fract_occupancy
 Ag  Ag1  1  0.00000  0.25268  0.00000  1
 Ag  Ag2  1  0.00000  0.74730  0.74732  1
 Ag  Ag3  1  0.00000  0.99999  0.25268  1
 Si  Si1  1  0.00000  0.33332  0.66667  1
 Si  Si2  1  0.00000  0.66666  0.33333  1
 Si  Si3  1  0.50000  -0.00002  -0.00000  1
 Tm  Tm1  1  0.50000  0.58264  0.00000  1
 Tm  Tm2  1  0.50000  0.41735  0.41736  1
 Tm  Tm3  1  0.50000  0.99999  0.58264  1
