CIF file written using JARVIS-Tools package.
data_BeGaCl4
_symmetry_space_group_name_H-M  'F-43m'
_cell_length_a       6.00073
_cell_length_b       6.00073
_cell_length_c       6.00073
_cell_angle_alpha    60
_cell_angle_beta     60
_cell_angle_gamma    60

_symmetry_Int_Tables_number  216
_chemical_formula_structural  BeGaCl4
_chemical_formula_sum  BeGaCl4
_cell_volume  152.79166120490893
_cell_formula_units_Z  1
loop_
  _symmetry_equiv_pos_site_id
 _symmetry_equiv_pos_as_xyz
 1  'x, y, z'
loop_
 _atom_site_type_symbol
 _atom_site_label
 _atom_site_symmetry_multiplicity
 _atom_site_fract_x
 _atom_site_fract_y
 _atom_site_fract_z
 _atom_site_fract_occupancy
 Be  Be1  1  0.00000  0.00000  0.00000  1
 Cl  Cl1  1  0.12514  0.62495  0.62495  1
 Cl  Cl2  1  0.62495  0.62495  0.62495  1
 Cl  Cl3  1  0.62495  0.12514  0.62495  1
 Cl  Cl4  1  0.62495  0.62495  0.12514  1
 Ga  Ga1  1  0.25000  0.25000  0.25000  1
