CIF file written using JARVIS-Tools package.
data_MgAl3
_symmetry_space_group_name_H-M  'P6_3/mmc'
_cell_length_a       5.90611
_cell_length_b       5.90611
_cell_length_c       4.80351
_cell_angle_alpha    90
_cell_angle_beta     90
_cell_angle_gamma    120

_symmetry_Int_Tables_number  194
_chemical_formula_structural  MgAl3
_chemical_formula_sum  Mg2Al6
_cell_volume  145.10833191485247
_cell_formula_units_Z  2
loop_
  _symmetry_equiv_pos_site_id
 _symmetry_equiv_pos_as_xyz
 1  'x, y, z'
loop_
 _atom_site_type_symbol
 _atom_site_label
 _atom_site_symmetry_multiplicity
 _atom_site_fract_x
 _atom_site_fract_y
 _atom_site_fract_z
 _atom_site_fract_occupancy
 Al  Al1  1  0.16220  0.32440  0.25000  1
 Al  Al2  1  0.67560  0.83780  0.25000  1
 Al  Al3  1  0.16220  0.83780  0.25000  1
 Al  Al4  1  0.32440  0.16220  0.75000  1
 Al  Al5  1  0.83780  0.16220  0.75000  1
 Al  Al6  1  0.83780  0.67560  0.75000  1
 Mg  Mg1  1  0.66667  0.33333  0.25000  1
 Mg  Mg2  1  0.33333  0.66667  0.75000  1
