CIF file written using JARVIS-Tools package.
data_LaCoO3
_symmetry_space_group_name_H-M  'R-3c'
_cell_length_a       5.38306
_cell_length_b       5.38306
_cell_length_c       5.38306
_cell_angle_alpha    61.1464
_cell_angle_beta     61.1464
_cell_angle_gamma    61.1464

_symmetry_Int_Tables_number  167
_chemical_formula_structural  LaCoO3
_chemical_formula_sum  La2Co2O6
_cell_volume  113.14475303536348
_cell_formula_units_Z  2
loop_
  _symmetry_equiv_pos_site_id
 _symmetry_equiv_pos_as_xyz
 1  'x, y, z'
loop_
 _atom_site_type_symbol
 _atom_site_label
 _atom_site_symmetry_multiplicity
 _atom_site_fract_x
 _atom_site_fract_y
 _atom_site_fract_z
 _atom_site_fract_occupancy
 Co  Co1  1  0.50000  0.50000  0.50000  1
 Co  Co2  1  0.00000  0.00000  0.00000  1
 La  La1  1  0.75000  0.75000  0.75000  1
 La  La2  1  0.25000  0.25000  0.25000  1
 O  O1  1  0.25001  0.80563  0.69436  1
 O  O2  1  0.80563  0.69436  0.25001  1
 O  O3  1  0.69436  0.25001  0.80563  1
 O  O4  1  0.74999  0.19437  0.30564  1
 O  O5  1  0.30564  0.74999  0.19437  1
 O  O6  1  0.19437  0.30564  0.74999  1
