CIF file written using JARVIS-Tools package.
data_TeN2Cl6
_symmetry_space_group_name_H-M  'Fm-3m'
_cell_length_a       6.90658
_cell_length_b       6.90658
_cell_length_c       6.90658
_cell_angle_alpha    60
_cell_angle_beta     60
_cell_angle_gamma    60

_symmetry_Int_Tables_number  225
_chemical_formula_structural  TeN2Cl6
_chemical_formula_sum  TeN2Cl6
_cell_volume  232.9563379778178
_cell_formula_units_Z  1
loop_
  _symmetry_equiv_pos_site_id
 _symmetry_equiv_pos_as_xyz
 1  'x, y, z'
loop_
 _atom_site_type_symbol
 _atom_site_label
 _atom_site_symmetry_multiplicity
 _atom_site_fract_x
 _atom_site_fract_y
 _atom_site_fract_z
 _atom_site_fract_occupancy
 Cl  Cl1  1  0.75561  0.24439  0.24439  1
 Cl  Cl2  1  0.75561  0.24439  0.75561  1
 Cl  Cl3  1  0.75561  0.75561  0.24439  1
 Cl  Cl4  1  0.24439  0.75561  0.75561  1
 Cl  Cl5  1  0.24439  0.75561  0.24439  1
 Cl  Cl6  1  0.24439  0.24439  0.75561  1
 N  N1  1  0.25000  0.25000  0.25000  1
 N  N2  1  0.75000  0.75000  0.75000  1
 Te  Te1  1  0.00000  0.00000  0.00000  1
