CIF file written using JARVIS-Tools package.
data_Cr3N2
_symmetry_space_group_name_H-M  'C2'
_cell_length_a       4.50397
_cell_length_b       4.57112
_cell_length_c       2.62966
_cell_angle_alpha    90
_cell_angle_beta     84.2655
_cell_angle_gamma    120.494

_symmetry_Int_Tables_number  5
_chemical_formula_structural  Cr3N2
_chemical_formula_sum  Cr3N2
_cell_volume  46.336555289561396
_cell_formula_units_Z  1
loop_
  _symmetry_equiv_pos_site_id
 _symmetry_equiv_pos_as_xyz
 1  'x, y, z'
loop_
 _atom_site_type_symbol
 _atom_site_label
 _atom_site_symmetry_multiplicity
 _atom_site_fract_x
 _atom_site_fract_y
 _atom_site_fract_z
 _atom_site_fract_occupancy
 Cr  Cr1  1  0.00000  0.66943  0.00000  1
 Cr  Cr2  1  0.32563  0.32796  0.05784  1
 Cr  Cr3  1  0.67437  0.00232  -0.05784  1
 N  N1  1  0.33888  0.66959  0.49703  1
 N  N2  1  0.66112  0.33071  0.50297  1
