CIF file written using JARVIS-Tools package.
data_ZrIr
_symmetry_space_group_name_H-M  'Cmcm'
_cell_length_a       3.44263
_cell_length_b       4.35858
_cell_length_c       10.0389
_cell_angle_alpha    90
_cell_angle_beta     99.873
_cell_angle_gamma    90

_symmetry_Int_Tables_number  63
_chemical_formula_structural  ZrIr
_chemical_formula_sum  Zr4Ir4
_cell_volume  148.40173536376398
_cell_formula_units_Z  4
loop_
  _symmetry_equiv_pos_site_id
 _symmetry_equiv_pos_as_xyz
 1  'x, y, z'
loop_
 _atom_site_type_symbol
 _atom_site_label
 _atom_site_symmetry_multiplicity
 _atom_site_fract_x
 _atom_site_fract_y
 _atom_site_fract_z
 _atom_site_fract_occupancy
 Ir  Ir1  1  0.05650  0.75000  0.11301  1
 Ir  Ir2  1  0.83155  0.75000  0.66310  1
 Ir  Ir3  1  0.94350  0.25000  0.88699  1
 Ir  Ir4  1  0.16845  0.25000  0.33690  1
 Zr  Zr1  1  0.69508  0.75000  0.39017  1
 Zr  Zr2  1  0.43877  0.75000  0.87755  1
 Zr  Zr3  1  0.30492  0.25000  0.60983  1
 Zr  Zr4  1  0.56123  0.25000  0.12245  1
