CIF file written using JARVIS-Tools package.
data_CoNiAs
_symmetry_space_group_name_H-M  'P-62m'
_cell_length_a       3.4144
_cell_length_b       6.12551
_cell_length_c       6.12558
_cell_angle_alpha    120
_cell_angle_beta     90
_cell_angle_gamma    90

_symmetry_Int_Tables_number  189
_chemical_formula_structural  CoNiAs
_chemical_formula_sum  Co3Ni3As3
_cell_volume  110.95223409216163
_cell_formula_units_Z  3
loop_
  _symmetry_equiv_pos_site_id
 _symmetry_equiv_pos_as_xyz
 1  'x, y, z'
loop_
 _atom_site_type_symbol
 _atom_site_label
 _atom_site_symmetry_multiplicity
 _atom_site_fract_x
 _atom_site_fract_y
 _atom_site_fract_z
 _atom_site_fract_occupancy
 As  As1  1  0.00000  0.33333  0.66668  1
 As  As2  1  0.00000  0.66665  0.33332  1
 As  As3  1  0.50000  0.99997  -0.00000  1
 Co  Co1  1  0.50000  0.60831  0.00000  1
 Co  Co2  1  0.50000  0.39167  0.39162  1
 Co  Co3  1  0.50000  0.00005  0.60838  1
 Ni  Ni1  1  0.00000  0.26277  -0.00000  1
 Ni  Ni2  1  0.00000  0.73717  0.73718  1
 Ni  Ni3  1  0.00000  -0.00001  0.26282  1
