CIF file written using JARVIS-Tools package.
data_LiGeBO4
_symmetry_space_group_name_H-M  'I-4'
_cell_length_a       4.51774
_cell_length_b       4.51773
_cell_length_c       4.72506
_cell_angle_alpha    118.559
_cell_angle_beta     118.559
_cell_angle_gamma    90

_symmetry_Int_Tables_number  82
_chemical_formula_structural  LiGeBO4
_chemical_formula_sum  LiGeBO4
_cell_volume  71.05811038732097
_cell_formula_units_Z  1
loop_
  _symmetry_equiv_pos_site_id
 _symmetry_equiv_pos_as_xyz
 1  'x, y, z'
loop_
 _atom_site_type_symbol
 _atom_site_label
 _atom_site_symmetry_multiplicity
 _atom_site_fract_x
 _atom_site_fract_y
 _atom_site_fract_z
 _atom_site_fract_occupancy
 B  B1  1  0.25000  0.75000  0.50000  1
 Ge  Ge1  1  0.00000  0.00000  0.00000  1
 Li  Li1  1  0.50000  0.50000  -0.00000  1
 O  O1  1  0.15661  0.69305  0.73467  1
 O  O2  1  0.57806  0.04162  0.73467  1
 O  O3  1  0.95838  0.84339  0.26533  1
 O  O4  1  0.30695  0.42194  0.26533  1
