CIF file written using JARVIS-Tools package.
data_BaScPb2
_symmetry_space_group_name_H-M  'P4mm'
_cell_length_a       4.23848
_cell_length_b       4.23848
_cell_length_c       7.89673
_cell_angle_alpha    90
_cell_angle_beta     90
_cell_angle_gamma    90

_symmetry_Int_Tables_number  99
_chemical_formula_structural  BaScPb2
_chemical_formula_sum  BaScPb2
_cell_volume  141.8626708283082
_cell_formula_units_Z  1
loop_
  _symmetry_equiv_pos_site_id
 _symmetry_equiv_pos_as_xyz
 1  'x, y, z'
loop_
 _atom_site_type_symbol
 _atom_site_label
 _atom_site_symmetry_multiplicity
 _atom_site_fract_x
 _atom_site_fract_y
 _atom_site_fract_z
 _atom_site_fract_occupancy
 Ba  Ba1  1  0.50000  0.50000  0.76621  1
 Pb  Pb1  1  0.00000  0.00000  0.02250  1
 Pb  Pb2  1  0.50000  0.50000  0.32817  1
 Sc  Sc1  1  0.00000  0.00000  0.38312  1
