CIF file written using JARVIS-Tools package.
data_CaAs2O6
_symmetry_space_group_name_H-M  'P-31m'
_cell_length_a       4.91625
_cell_length_b       4.91625
_cell_length_c       5.08543
_cell_angle_alpha    90
_cell_angle_beta     90
_cell_angle_gamma    120

_symmetry_Int_Tables_number  162
_chemical_formula_structural  CaAs2O6
_chemical_formula_sum  CaAs2O6
_cell_volume  106.44532624761702
_cell_formula_units_Z  1
loop_
  _symmetry_equiv_pos_site_id
 _symmetry_equiv_pos_as_xyz
 1  'x, y, z'
loop_
 _atom_site_type_symbol
 _atom_site_label
 _atom_site_symmetry_multiplicity
 _atom_site_fract_x
 _atom_site_fract_y
 _atom_site_fract_z
 _atom_site_fract_occupancy
 As  As1  1  0.33333  0.66667  0.50000  1
 As  As2  1  0.66667  0.33333  0.50000  1
 Ca  Ca1  1  0.00000  0.00000  0.00000  1
 O  O1  1  0.37655  0.37655  0.70602  1
 O  O2  1  0.62345  -0.00000  0.70602  1
 O  O3  1  0.00000  0.62345  0.70602  1
 O  O4  1  0.37655  0.00000  0.29398  1
 O  O5  1  -0.00000  0.37655  0.29398  1
 O  O6  1  0.62345  0.62345  0.29398  1
