CIF file written using JARVIS-Tools package.
data_Cu3SbSe4
_symmetry_space_group_name_H-M  'I-42m'
_cell_length_a       5.73072
_cell_length_b       5.73072
_cell_length_c       6.99325
_cell_angle_alpha    114.188
_cell_angle_beta     114.188
_cell_angle_gamma    90

_symmetry_Int_Tables_number  121
_chemical_formula_structural  Cu3SbSe4
_chemical_formula_sum  Cu3SbSe4
_cell_volume  187.17995110449496
_cell_formula_units_Z  1
loop_
  _symmetry_equiv_pos_site_id
 _symmetry_equiv_pos_as_xyz
 1  'x, y, z'
loop_
 _atom_site_type_symbol
 _atom_site_label
 _atom_site_symmetry_multiplicity
 _atom_site_fract_x
 _atom_site_fract_y
 _atom_site_fract_z
 _atom_site_fract_occupancy
 Cu  Cu1  1  0.75000  0.25000  0.50000  1
 Cu  Cu2  1  0.50000  0.50000  -0.00000  1
 Cu  Cu3  1  0.25000  0.75000  0.50000  1
 Sb  Sb1  1  0.00000  0.00000  0.00000  1
 Se  Se1  1  0.13408  0.13408  0.73085  1
 Se  Se2  1  0.59677  0.59677  0.73085  1
 Se  Se3  1  0.86592  0.40323  0.26915  1
 Se  Se4  1  0.40323  0.86592  0.26915  1
