CIF file written using JARVIS-Tools package.
data_Zr2Pd
_symmetry_space_group_name_H-M  'I4/mmm'
_cell_length_a       3.33957
_cell_length_b       3.33956
_cell_length_c       5.91004
_cell_angle_alpha    106.412
_cell_angle_beta     106.411
_cell_angle_gamma    90.0001

_symmetry_Int_Tables_number  139
_chemical_formula_structural  Zr2Pd
_chemical_formula_sum  Zr2Pd
_cell_volume  60.42276791686808
_cell_formula_units_Z  1
loop_
  _symmetry_equiv_pos_site_id
 _symmetry_equiv_pos_as_xyz
 1  'x, y, z'
loop_
 _atom_site_type_symbol
 _atom_site_label
 _atom_site_symmetry_multiplicity
 _atom_site_fract_x
 _atom_site_fract_y
 _atom_site_fract_z
 _atom_site_fract_occupancy
 Pd  Pd1  1  0.00000  0.00000  0.00000  1
 Zr  Zr1  1  0.65648  0.65648  0.31295  1
 Zr  Zr2  1  0.34352  0.34352  0.68705  1
