CIF file written using JARVIS-Tools package.
data_MnB
_symmetry_space_group_name_H-M  'Pnma'
_cell_length_a       2.97785
_cell_length_b       4.11671
_cell_length_c       5.45578
_cell_angle_alpha    90
_cell_angle_beta     90
_cell_angle_gamma    90

_symmetry_Int_Tables_number  62
_chemical_formula_structural  MnB
_chemical_formula_sum  Mn4B4
_cell_volume  66.88207683503546
_cell_formula_units_Z  4
loop_
  _symmetry_equiv_pos_site_id
 _symmetry_equiv_pos_as_xyz
 1  'x, y, z'
loop_
 _atom_site_type_symbol
 _atom_site_label
 _atom_site_symmetry_multiplicity
 _atom_site_fract_x
 _atom_site_fract_y
 _atom_site_fract_z
 _atom_site_fract_occupancy
 B  B1  1  0.25000  0.88629  0.53338  1
 B  B2  1  0.75000  0.11371  0.46662  1
 B  B3  1  0.75000  0.38629  0.96662  1
 B  B4  1  0.25000  0.61371  0.03338  1
 Mn  Mn1  1  0.25000  0.37803  0.67509  1
 Mn  Mn2  1  0.75000  0.62197  0.32491  1
 Mn  Mn3  1  0.75000  0.87803  0.82491  1
 Mn  Mn4  1  0.25000  0.12197  0.17509  1
