CIF file written using JARVIS-Tools package.
data_Mg7B
_symmetry_space_group_name_H-M  'P-6m2'
_cell_length_a       6.14999
_cell_length_b       6.14999
_cell_length_c       4.87253
_cell_angle_alpha    90
_cell_angle_beta     90
_cell_angle_gamma    120

_symmetry_Int_Tables_number  187
_chemical_formula_structural  Mg7B
_chemical_formula_sum  Mg7B
_cell_volume  159.60044966160666
_cell_formula_units_Z  1
loop_
  _symmetry_equiv_pos_site_id
 _symmetry_equiv_pos_as_xyz
 1  'x, y, z'
loop_
 _atom_site_type_symbol
 _atom_site_label
 _atom_site_symmetry_multiplicity
 _atom_site_fract_x
 _atom_site_fract_y
 _atom_site_fract_z
 _atom_site_fract_occupancy
 B  B1  1  0.16667  0.33333  0.25000  1
 Mg  Mg1  1  0.16579  0.83290  0.25000  1
 Mg  Mg2  1  0.66710  0.33421  0.25000  1
 Mg  Mg3  1  0.66710  0.83290  0.25000  1
 Mg  Mg4  1  0.32592  0.17408  0.75000  1
 Mg  Mg5  1  0.32592  0.65184  0.75000  1
 Mg  Mg6  1  0.84816  0.17408  0.75000  1
 Mg  Mg7  1  0.83333  0.66667  0.75000  1
