CIF file written using JARVIS-Tools package.
data_TmSnIr
_symmetry_space_group_name_H-M  'P-62m'
_cell_length_a       3.82501
_cell_length_b       7.50842
_cell_length_c       7.50838
_cell_angle_alpha    120
_cell_angle_beta     90
_cell_angle_gamma    90

_symmetry_Int_Tables_number  189
_chemical_formula_structural  TmSnIr
_chemical_formula_sum  Tm3Sn3Ir3
_cell_volume  186.74838218775324
_cell_formula_units_Z  3
loop_
  _symmetry_equiv_pos_site_id
 _symmetry_equiv_pos_as_xyz
 1  'x, y, z'
loop_
 _atom_site_type_symbol
 _atom_site_label
 _atom_site_symmetry_multiplicity
 _atom_site_fract_x
 _atom_site_fract_y
 _atom_site_fract_z
 _atom_site_fract_occupancy
 Ir  Ir1  1  0.00000  0.33333  0.66667  1
 Ir  Ir2  1  0.00000  0.66666  0.33333  1
 Ir  Ir3  1  0.50000  0.99999  0.00000  1
 Sn  Sn1  1  0.00000  0.26442  0.00000  1
 Sn  Sn2  1  0.00000  0.73556  0.73557  1
 Sn  Sn3  1  0.00000  0.99999  0.26443  1
 Tm  Tm1  1  0.50000  0.59724  -0.00000  1
 Tm  Tm2  1  0.50000  0.40274  0.40275  1
 Tm  Tm3  1  0.50000  0.99999  0.59725  1
