CIF file written using JARVIS-Tools package.
data_NaSnO
_symmetry_space_group_name_H-M  'P4/nmm'
_cell_length_a       4.34057
_cell_length_b       4.34057
_cell_length_c       6.39874
_cell_angle_alpha    90
_cell_angle_beta     90
_cell_angle_gamma    90

_symmetry_Int_Tables_number  129
_chemical_formula_structural  NaSnO
_chemical_formula_sum  Na2Sn2O2
_cell_volume  120.55608855857395
_cell_formula_units_Z  2
loop_
  _symmetry_equiv_pos_site_id
 _symmetry_equiv_pos_as_xyz
 1  'x, y, z'
loop_
 _atom_site_type_symbol
 _atom_site_label
 _atom_site_symmetry_multiplicity
 _atom_site_fract_x
 _atom_site_fract_y
 _atom_site_fract_z
 _atom_site_fract_occupancy
 Na  Na1  1  0.00000  0.00000  0.00000  1
 Na  Na2  1  0.50000  0.50000  0.00000  1
 O  O1  1  0.00000  0.50000  0.86356  1
 O  O2  1  0.50000  0.00000  0.13644  1
 Sn  Sn1  1  0.00000  0.50000  0.55039  1
 Sn  Sn2  1  0.50000  0.00000  0.44961  1
