CIF file written using JARVIS-Tools package.
data_PrB2Rh2C
_symmetry_space_group_name_H-M  'I4/mmm'
_cell_length_a       3.88283
_cell_length_b       3.88283
_cell_length_c       5.83633
_cell_angle_alpha    109.429
_cell_angle_beta     109.429
_cell_angle_gamma    90

_symmetry_Int_Tables_number  139
_chemical_formula_structural  PrB2Rh2C
_chemical_formula_sum  PrB2Rh2C
_cell_volume  77.64615935628805
_cell_formula_units_Z  1
loop_
  _symmetry_equiv_pos_site_id
 _symmetry_equiv_pos_as_xyz
 1  'x, y, z'
loop_
 _atom_site_type_symbol
 _atom_site_label
 _atom_site_symmetry_multiplicity
 _atom_site_fract_x
 _atom_site_fract_y
 _atom_site_fract_z
 _atom_site_fract_occupancy
 B  B1  1  0.64515  0.64515  0.29030  1
 B  B2  1  0.35485  0.35485  0.70970  1
 C  C1  1  0.50000  0.50000  0.00000  1
 Pr  Pr1  1  0.00000  0.00000  0.00000  1
 Rh  Rh1  1  0.75000  0.25000  0.50000  1
 Rh  Rh2  1  0.25000  0.75000  0.50000  1
