CIF file written using JARVIS-Tools package.
data_UPt4Au
_symmetry_space_group_name_H-M  'F-43m'
_cell_length_a       5.3319
_cell_length_b       5.3319
_cell_length_c       5.3319
_cell_angle_alpha    60
_cell_angle_beta     60
_cell_angle_gamma    60

_symmetry_Int_Tables_number  216
_chemical_formula_structural  UPt4Au
_chemical_formula_sum  UPt4Au
_cell_volume  107.18370134835112
_cell_formula_units_Z  1
loop_
  _symmetry_equiv_pos_site_id
 _symmetry_equiv_pos_as_xyz
 1  'x, y, z'
loop_
 _atom_site_type_symbol
 _atom_site_label
 _atom_site_symmetry_multiplicity
 _atom_site_fract_x
 _atom_site_fract_y
 _atom_site_fract_z
 _atom_site_fract_occupancy
 Au  Au1  1  0.25000  0.25000  0.25000  1
 Pt  Pt1  1  0.62462  0.62462  0.12614  1
 Pt  Pt2  1  0.12614  0.62462  0.62462  1
 Pt  Pt3  1  0.62462  0.12614  0.62462  1
 Pt  Pt4  1  0.62462  0.62462  0.62462  1
 U  U1  1  0.00000  0.00000  0.00000  1
