CIF file written using JARVIS-Tools package.
data_Li3VS4
_symmetry_space_group_name_H-M  'P-43m'
_cell_length_a       5.8481
_cell_length_b       5.8481
_cell_length_c       5.8481
_cell_angle_alpha    90
_cell_angle_beta     90
_cell_angle_gamma    90

_symmetry_Int_Tables_number  215
_chemical_formula_structural  Li3VS4
_chemical_formula_sum  Li3VS4
_cell_volume  200.00674752542997
_cell_formula_units_Z  1
loop_
  _symmetry_equiv_pos_site_id
 _symmetry_equiv_pos_as_xyz
 1  'x, y, z'
loop_
 _atom_site_type_symbol
 _atom_site_label
 _atom_site_symmetry_multiplicity
 _atom_site_fract_x
 _atom_site_fract_y
 _atom_site_fract_z
 _atom_site_fract_occupancy
 Li  Li1  1  0.00000  0.00000  0.50000  1
 Li  Li2  1  0.00000  0.50000  0.00000  1
 Li  Li3  1  0.50000  0.00000  0.00000  1
 S  S1  1  0.21348  0.21348  0.21348  1
 S  S2  1  0.21348  0.78652  0.78652  1
 S  S3  1  0.78652  0.21348  0.78652  1
 S  S4  1  0.78652  0.78652  0.21348  1
 V  V1  1  0.00000  0.00000  0.00000  1
