CIF file written using JARVIS-Tools package.
data_PrSiRu
_symmetry_space_group_name_H-M  'P4/nmm'
_cell_length_a       4.24587
_cell_length_b       4.24587
_cell_length_c       6.99776
_cell_angle_alpha    90
_cell_angle_beta     90
_cell_angle_gamma    90

_symmetry_Int_Tables_number  129
_chemical_formula_structural  PrSiRu
_chemical_formula_sum  Pr2Si2Ru2
_cell_volume  126.15182491821605
_cell_formula_units_Z  2
loop_
  _symmetry_equiv_pos_site_id
 _symmetry_equiv_pos_as_xyz
 1  'x, y, z'
loop_
 _atom_site_type_symbol
 _atom_site_label
 _atom_site_symmetry_multiplicity
 _atom_site_fract_x
 _atom_site_fract_y
 _atom_site_fract_z
 _atom_site_fract_occupancy
 Pr  Pr1  1  0.00000  0.50000  0.67719  1
 Pr  Pr2  1  0.50000  0.00000  0.32281  1
 Ru  Ru1  1  0.50000  0.50000  0.00000  1
 Ru  Ru2  1  0.00000  0.00000  0.00000  1
 Si  Si1  1  0.00000  0.50000  0.17302  1
 Si  Si2  1  0.50000  0.00000  0.82698  1
