CIF file written using JARVIS-Tools package.
data_PrFeSb2
_symmetry_space_group_name_H-M  'P4/nmm'
_cell_length_a       4.36316
_cell_length_b       4.36316
_cell_length_c       10.0299
_cell_angle_alpha    90
_cell_angle_beta     90
_cell_angle_gamma    90

_symmetry_Int_Tables_number  129
_chemical_formula_structural  PrFeSb2
_chemical_formula_sum  Pr2Fe2Sb4
_cell_volume  190.94142127716734
_cell_formula_units_Z  2
loop_
  _symmetry_equiv_pos_site_id
 _symmetry_equiv_pos_as_xyz
 1  'x, y, z'
loop_
 _atom_site_type_symbol
 _atom_site_label
 _atom_site_symmetry_multiplicity
 _atom_site_fract_x
 _atom_site_fract_y
 _atom_site_fract_z
 _atom_site_fract_occupancy
 Fe  Fe1  1  0.25000  0.75000  0.50000  1
 Fe  Fe2  1  0.75000  0.25000  0.50000  1
 Pr  Pr1  1  0.75000  0.75000  0.74367  1
 Pr  Pr2  1  0.25000  0.25000  0.25633  1
 Sb  Sb1  1  0.25000  0.75000  0.00000  1
 Sb  Sb2  1  0.75000  0.25000  0.00000  1
 Sb  Sb3  1  0.75000  0.75000  0.36857  1
 Sb  Sb4  1  0.25000  0.25000  0.63143  1
