CIF file written using JARVIS-Tools package.
data_BeZn2Re
_symmetry_space_group_name_H-M  'P4mm'
_cell_length_a       2.85147
_cell_length_b       2.85147
_cell_length_c       6.42427
_cell_angle_alpha    90
_cell_angle_beta     90
_cell_angle_gamma    90

_symmetry_Int_Tables_number  99
_chemical_formula_structural  BeZn2Re
_chemical_formula_sum  BeZn2Re
_cell_volume  52.23498734690641
_cell_formula_units_Z  1
loop_
  _symmetry_equiv_pos_site_id
 _symmetry_equiv_pos_as_xyz
 1  'x, y, z'
loop_
 _atom_site_type_symbol
 _atom_site_label
 _atom_site_symmetry_multiplicity
 _atom_site_fract_x
 _atom_site_fract_y
 _atom_site_fract_z
 _atom_site_fract_occupancy
 Be  Be1  1  0.00000  0.00000  0.50838  1
 Re  Re1  1  0.50000  0.50000  0.71125  1
 Zn  Zn1  1  0.00000  0.00000  0.00058  1
 Zn  Zn2  1  0.50000  0.50000  0.27979  1
