CIF file written using JARVIS-Tools package.
data_BeNbTl2
_symmetry_space_group_name_H-M  'I-4m2'
_cell_length_a       5.58734
_cell_length_b       5.58734
_cell_length_c       5.58734
_cell_angle_alpha    137.686
_cell_angle_beta     137.686
_cell_angle_gamma    61.3836

_symmetry_Int_Tables_number  119
_chemical_formula_structural  BeNbTl2
_chemical_formula_sum  BeNbTl2
_cell_volume  78.15609993537556
_cell_formula_units_Z  1
loop_
  _symmetry_equiv_pos_site_id
 _symmetry_equiv_pos_as_xyz
 1  'x, y, z'
loop_
 _atom_site_type_symbol
 _atom_site_label
 _atom_site_symmetry_multiplicity
 _atom_site_fract_x
 _atom_site_fract_y
 _atom_site_fract_z
 _atom_site_fract_occupancy
 Be  Be1  1  0.50000  0.50000  0.00000  1
 Nb  Nb1  1  0.75000  0.25000  0.50000  1
 Tl  Tl1  1  0.00000  0.00000  0.00000  1
 Tl  Tl2  1  0.25000  0.75000  0.50000  1
