CIF file written using JARVIS-Tools package.
data_Be2VSi
_symmetry_space_group_name_H-M  'P4/mmm'
_cell_length_a       2.46087
_cell_length_b       2.46087
_cell_length_c       7.64556
_cell_angle_alpha    90
_cell_angle_beta     90
_cell_angle_gamma    90

_symmetry_Int_Tables_number  123
_chemical_formula_structural  Be2VSi
_chemical_formula_sum  Be2VSi
_cell_volume  46.30074085205713
_cell_formula_units_Z  1
loop_
  _symmetry_equiv_pos_site_id
 _symmetry_equiv_pos_as_xyz
 1  'x, y, z'
loop_
 _atom_site_type_symbol
 _atom_site_label
 _atom_site_symmetry_multiplicity
 _atom_site_fract_x
 _atom_site_fract_y
 _atom_site_fract_z
 _atom_site_fract_occupancy
 Be  Be1  1  0.00000  0.00000  0.73725  1
 Be  Be2  1  0.00000  0.00000  0.26275  1
 Si  Si1  1  0.50000  0.50000  0.00000  1
 V  V1  1  0.50000  0.50000  0.50000  1
