CIF file written using JARVIS-Tools package.
data_BeHgIr
_symmetry_space_group_name_H-M  'I4mm'
_cell_length_a       5.43047
_cell_length_b       5.43047
_cell_length_c       5.43047
_cell_angle_alpha    147.952
_cell_angle_beta     147.952
_cell_angle_gamma    45.9566

_symmetry_Int_Tables_number  107
_chemical_formula_structural  BeHgIr
_chemical_formula_sum  BeHgIr
_cell_volume  44.938311515410916
_cell_formula_units_Z  1
loop_
  _symmetry_equiv_pos_site_id
 _symmetry_equiv_pos_as_xyz
 1  'x, y, z'
loop_
 _atom_site_type_symbol
 _atom_site_label
 _atom_site_symmetry_multiplicity
 _atom_site_fract_x
 _atom_site_fract_y
 _atom_site_fract_z
 _atom_site_fract_occupancy
 Be  Be1  1  0.03982  0.03982  -0.00000  1
 Hg  Hg1  1  0.33539  0.33539  -0.00000  1
 Ir  Ir1  1  0.62479  0.62479  -0.00000  1
