CIF file written using JARVIS-Tools package.
data_BeTlCd4
_symmetry_space_group_name_H-M  'F-43m'
_cell_length_a       5.8491
_cell_length_b       5.8491
_cell_length_c       5.8491
_cell_angle_alpha    60
_cell_angle_beta     60
_cell_angle_gamma    60

_symmetry_Int_Tables_number  216
_chemical_formula_structural  BeTlCd4
_chemical_formula_sum  BeTlCd4
_cell_volume  141.4983487528718
_cell_formula_units_Z  1
loop_
  _symmetry_equiv_pos_site_id
 _symmetry_equiv_pos_as_xyz
 1  'x, y, z'
loop_
 _atom_site_type_symbol
 _atom_site_label
 _atom_site_symmetry_multiplicity
 _atom_site_fract_x
 _atom_site_fract_y
 _atom_site_fract_z
 _atom_site_fract_occupancy
 Be  Be1  1  0.00000  0.00000  0.00000  1
 Cd  Cd1  1  0.12350  0.62550  0.62550  1
 Cd  Cd2  1  0.62550  0.62550  0.62550  1
 Cd  Cd3  1  0.62550  0.12350  0.62550  1
 Cd  Cd4  1  0.62550  0.62550  0.12350  1
 Tl  Tl1  1  0.25000  0.25000  0.25000  1
