CIF file written using JARVIS-Tools package.
data_CaScBe
_symmetry_space_group_name_H-M  'I4mm'
_cell_length_a       6.52353
_cell_length_b       6.52353
_cell_length_c       6.52353
_cell_angle_alpha    150.437
_cell_angle_beta     150.437
_cell_angle_gamma    42.3

_symmetry_Int_Tables_number  107
_chemical_formula_structural  CaScBe
_chemical_formula_sum  CaScBe
_cell_volume  67.41414804143756
_cell_formula_units_Z  1
loop_
  _symmetry_equiv_pos_site_id
 _symmetry_equiv_pos_as_xyz
 1  'x, y, z'
loop_
 _atom_site_type_symbol
 _atom_site_label
 _atom_site_symmetry_multiplicity
 _atom_site_fract_x
 _atom_site_fract_y
 _atom_site_fract_z
 _atom_site_fract_occupancy
 Be  Be1  1  0.01710  0.01710  -0.00000  1
 Ca  Ca1  1  0.35817  0.35817  -0.00000  1
 Sc  Sc1  1  0.62473  0.62473  0.00000  1
