CIF file written using JARVIS-Tools package.
data_SiNi2
_symmetry_space_group_name_H-M  'Pnma'
_cell_length_a       3.73355
_cell_length_b       5.08483
_cell_length_c       7.07452
_cell_angle_alpha    90
_cell_angle_beta     90
_cell_angle_gamma    90

_symmetry_Int_Tables_number  62
_chemical_formula_structural  SiNi2
_chemical_formula_sum  Si4Ni8
_cell_volume  134.3061519054084
_cell_formula_units_Z  4
loop_
  _symmetry_equiv_pos_site_id
 _symmetry_equiv_pos_as_xyz
 1  'x, y, z'
loop_
 _atom_site_type_symbol
 _atom_site_label
 _atom_site_symmetry_multiplicity
 _atom_site_fract_x
 _atom_site_fract_y
 _atom_site_fract_z
 _atom_site_fract_occupancy
 Ni  Ni1  1  0.25000  0.96044  0.79888  1
 Ni  Ni2  1  0.75000  0.03956  0.20112  1
 Ni  Ni3  1  0.25000  0.46044  0.70112  1
 Ni  Ni4  1  0.75000  0.53956  0.29888  1
 Ni  Ni5  1  0.25000  0.83252  0.43944  1
 Ni  Ni6  1  0.75000  0.16748  0.56056  1
 Ni  Ni7  1  0.25000  0.33252  0.06056  1
 Ni  Ni8  1  0.75000  0.66748  0.93944  1
 Si  Si1  1  0.25000  0.78248  0.11516  1
 Si  Si2  1  0.75000  0.21752  0.88484  1
 Si  Si3  1  0.25000  0.28248  0.38484  1
 Si  Si4  1  0.75000  0.71752  0.61516  1
