CIF file written using JARVIS-Tools package.
data_Sr2TiBe2
_symmetry_space_group_name_H-M  'I4/mmm'
_cell_length_a       5.63918
_cell_length_b       5.63918
_cell_length_c       5.63918
_cell_angle_alpha    116.506
_cell_angle_beta     116.506
_cell_angle_gamma    96.1663

_symmetry_Int_Tables_number  139
_chemical_formula_structural  Sr2TiBe2
_chemical_formula_sum  Sr2TiBe2
_cell_volume  132.66839862534084
_cell_formula_units_Z  1
loop_
  _symmetry_equiv_pos_site_id
 _symmetry_equiv_pos_as_xyz
 1  'x, y, z'
loop_
 _atom_site_type_symbol
 _atom_site_label
 _atom_site_symmetry_multiplicity
 _atom_site_fract_x
 _atom_site_fract_y
 _atom_site_fract_z
 _atom_site_fract_occupancy
 Be  Be1  1  0.63714  0.63714  0.00000  1
 Be  Be2  1  0.36286  0.36286  0.00000  1
 Sr  Sr1  1  0.75000  0.25000  0.50000  1
 Sr  Sr2  1  0.25000  0.75000  0.50000  1
 Ti  Ti1  1  0.00000  0.00000  0.00000  1
