CIF file written using JARVIS-Tools package.
data_TiFeP
_symmetry_space_group_name_H-M  'P-62m'
_cell_length_a       3.5743
_cell_length_b       5.98793
_cell_length_c       5.98795
_cell_angle_alpha    120
_cell_angle_beta     90
_cell_angle_gamma    90

_symmetry_Int_Tables_number  189
_chemical_formula_structural  TiFeP
_chemical_formula_sum  Ti3Fe3P3
_cell_volume  110.9881166110254
_cell_formula_units_Z  3
loop_
  _symmetry_equiv_pos_site_id
 _symmetry_equiv_pos_as_xyz
 1  'x, y, z'
loop_
 _atom_site_type_symbol
 _atom_site_label
 _atom_site_symmetry_multiplicity
 _atom_site_fract_x
 _atom_site_fract_y
 _atom_site_fract_z
 _atom_site_fract_occupancy
 Fe  Fe1  1  0.50000  0.75620  0.00000  1
 Fe  Fe2  1  0.50000  0.24378  0.24378  1
 Fe  Fe3  1  0.50000  -0.00001  0.75622  1
 P  P1  1  0.00000  -0.00000  0.00000  1
 P  P2  1  0.50000  0.33332  0.66666  1
 P  P3  1  0.50000  0.66666  0.33334  1
 Ti  Ti1  1  0.00000  0.41951  -0.00000  1
 Ti  Ti2  1  0.00000  0.58048  0.58050  1
 Ti  Ti3  1  0.00000  0.99999  0.41950  1
