CIF file written using JARVIS-Tools package.
data_MnOF
_symmetry_space_group_name_H-M  'Cmmm'
_cell_length_a       4.7464
_cell_length_b       4.74639
_cell_length_c       3.00675
_cell_angle_alpha    90
_cell_angle_beta     90
_cell_angle_gamma    98.3811

_symmetry_Int_Tables_number  65
_chemical_formula_structural  MnOF
_chemical_formula_sum  Mn2O2F2
_cell_volume  67.01347061459464
_cell_formula_units_Z  2
loop_
  _symmetry_equiv_pos_site_id
 _symmetry_equiv_pos_as_xyz
 1  'x, y, z'
loop_
 _atom_site_type_symbol
 _atom_site_label
 _atom_site_symmetry_multiplicity
 _atom_site_fract_x
 _atom_site_fract_y
 _atom_site_fract_z
 _atom_site_fract_occupancy
 F  F1  1  0.19246  0.80754  0.50000  1
 F  F2  1  0.80754  0.19246  0.50000  1
 Mn  Mn1  1  0.00000  0.00000  0.00000  1
 Mn  Mn2  1  0.50000  0.50000  0.50000  1
 O  O1  1  0.30243  0.30243  0.00000  1
 O  O2  1  0.69757  0.69757  0.00000  1
