CIF file written using JARVIS-Tools package.
data_TbNaO2
_symmetry_space_group_name_H-M  'I4_1/amd'
_cell_length_a       4.63985
_cell_length_b       4.63985
_cell_length_c       6.11347
_cell_angle_alpha    112.301
_cell_angle_beta     112.301
_cell_angle_gamma    89.9999

_symmetry_Int_Tables_number  141
_chemical_formula_structural  TbNaO2
_chemical_formula_sum  Tb2Na2O4
_cell_volume  111.05372288379773
_cell_formula_units_Z  2
loop_
  _symmetry_equiv_pos_site_id
 _symmetry_equiv_pos_as_xyz
 1  'x, y, z'
loop_
 _atom_site_type_symbol
 _atom_site_label
 _atom_site_symmetry_multiplicity
 _atom_site_fract_x
 _atom_site_fract_y
 _atom_site_fract_z
 _atom_site_fract_occupancy
 Na  Na1  1  0.87500  0.12500  0.75000  1
 Na  Na2  1  0.12500  0.87500  0.25000  1
 O  O1  1  0.15147  0.40147  0.30294  1
 O  O2  1  0.40147  0.15147  0.80294  1
 O  O3  1  0.59853  0.84853  0.19706  1
 O  O4  1  0.84853  0.59853  0.69706  1
 Tb  Tb1  1  0.62500  0.37500  0.25000  1
 Tb  Tb2  1  0.37500  0.62500  0.75000  1
