CIF file written using JARVIS-Tools package.
data_TiBeV
_symmetry_space_group_name_H-M  'I4mm'
_cell_length_a       5.99591
_cell_length_b       5.99591
_cell_length_c       5.99591
_cell_angle_alpha    154.911
_cell_angle_beta     154.911
_cell_angle_gamma    35.7768

_symmetry_Int_Tables_number  107
_chemical_formula_structural  TiBeV
_chemical_formula_sum  TiBeV
_cell_volume  38.709512490375594
_cell_formula_units_Z  1
loop_
  _symmetry_equiv_pos_site_id
 _symmetry_equiv_pos_as_xyz
 1  'x, y, z'
loop_
 _atom_site_type_symbol
 _atom_site_label
 _atom_site_symmetry_multiplicity
 _atom_site_fract_x
 _atom_site_fract_y
 _atom_site_fract_z
 _atom_site_fract_occupancy
 Be  Be1  1  0.00510  0.00510  -0.00000  1
 Ti  Ti1  1  0.34456  0.34456  0.00000  1
 V  V1  1  0.65034  0.65034  -0.00000  1
