CIF file written using JARVIS-Tools package.
data_K4I2O
_symmetry_space_group_name_H-M  'I4/mmm'
_cell_length_a       9.44521
_cell_length_b       9.44521
_cell_length_c       9.44521
_cell_angle_alpha    147.796
_cell_angle_beta     147.796
_cell_angle_gamma    46.1871

_symmetry_Int_Tables_number  139
_chemical_formula_structural  K4I2O
_chemical_formula_sum  K4I2O
_cell_volume  238.49464984181057
_cell_formula_units_Z  1
loop_
  _symmetry_equiv_pos_site_id
 _symmetry_equiv_pos_as_xyz
 1  'x, y, z'
loop_
 _atom_site_type_symbol
 _atom_site_label
 _atom_site_symmetry_multiplicity
 _atom_site_fract_x
 _atom_site_fract_y
 _atom_site_fract_z
 _atom_site_fract_occupancy
 I  I1  1  0.35268  0.35268  0.00000  1
 I  I2  1  0.64732  0.64732  -0.00000  1
 K  K1  1  0.50000  0.00000  0.50000  1
 K  K2  1  0.14840  0.14840  -0.00000  1
 K  K3  1  0.85160  0.85160  -0.00000  1
 K  K4  1  0.00000  0.50000  0.50000  1
 O  O1  1  0.00000  0.00000  0.00000  1
