CIF file written using JARVIS-Tools package.
data_Be2NbMo
_symmetry_space_group_name_H-M  'I-4m2'
_cell_length_a       4.85741
_cell_length_b       4.85741
_cell_length_c       4.85741
_cell_angle_alpha    137.012
_cell_angle_beta     137.012
_cell_angle_gamma    62.419

_symmetry_Int_Tables_number  119
_chemical_formula_structural  Be2NbMo
_chemical_formula_sum  Be2NbMo
_cell_volume  52.63778342250411
_cell_formula_units_Z  1
loop_
  _symmetry_equiv_pos_site_id
 _symmetry_equiv_pos_as_xyz
 1  'x, y, z'
loop_
 _atom_site_type_symbol
 _atom_site_label
 _atom_site_symmetry_multiplicity
 _atom_site_fract_x
 _atom_site_fract_y
 _atom_site_fract_z
 _atom_site_fract_occupancy
 Be  Be1  1  0.00000  0.00000  0.00000  1
 Be  Be2  1  0.25000  0.75000  0.50000  1
 Mo  Mo1  1  0.50000  0.50000  0.00000  1
 Nb  Nb1  1  0.75000  0.25000  0.50000  1
