CIF file written using JARVIS-Tools package.
data_CaBePb
_symmetry_space_group_name_H-M  'I4mm'
_cell_length_a       6.22475
_cell_length_b       6.22475
_cell_length_c       6.22475
_cell_angle_alpha    147.325
_cell_angle_beta     147.325
_cell_angle_gamma    46.8828

_symmetry_Int_Tables_number  107
_chemical_formula_structural  CaBePb
_chemical_formula_sum  CaBePb
_cell_volume  70.03939669732242
_cell_formula_units_Z  1
loop_
  _symmetry_equiv_pos_site_id
 _symmetry_equiv_pos_as_xyz
 1  'x, y, z'
loop_
 _atom_site_type_symbol
 _atom_site_label
 _atom_site_symmetry_multiplicity
 _atom_site_fract_x
 _atom_site_fract_y
 _atom_site_fract_z
 _atom_site_fract_occupancy
 Be  Be1  1  0.01598  0.01598  -0.00000  1
 Ca  Ca1  1  0.34720  0.34720  -0.00000  1
 Pb  Pb1  1  0.63682  0.63682  -0.00000  1
