CIF file written using JARVIS-Tools package.
data_NiAsPd
_symmetry_space_group_name_H-M  'P-62m'
_cell_length_a       6.26866
_cell_length_b       6.26866
_cell_length_c       3.77875
_cell_angle_alpha    90
_cell_angle_beta     90
_cell_angle_gamma    119.998

_symmetry_Int_Tables_number  189
_chemical_formula_structural  NiAsPd
_chemical_formula_sum  Ni3As3Pd3
_cell_volume  128.59862439929262
_cell_formula_units_Z  3
loop_
  _symmetry_equiv_pos_site_id
 _symmetry_equiv_pos_as_xyz
 1  'x, y, z'
loop_
 _atom_site_type_symbol
 _atom_site_label
 _atom_site_symmetry_multiplicity
 _atom_site_fract_x
 _atom_site_fract_y
 _atom_site_fract_z
 _atom_site_fract_occupancy
 As  As1  1  0.33334  0.66667  0.00000  1
 As  As2  1  0.66667  0.33334  0.00000  1
 As  As3  1  -0.00000  -0.00000  0.50000  1
 Ni  Ni1  1  0.25077  0.00000  0.00000  1
 Ni  Ni2  1  0.00000  0.25077  0.00000  1
 Ni  Ni3  1  0.74923  0.74923  0.00000  1
 Pd  Pd1  1  0.59146  -0.00000  0.50000  1
 Pd  Pd2  1  -0.00000  0.59146  0.50000  1
 Pd  Pd3  1  0.40854  0.40854  0.50000  1
