CIF file written using JARVIS-Tools package.
data_BeSeBr
_symmetry_space_group_name_H-M  'I4mm'
_cell_length_a       7.1978
_cell_length_b       7.1978
_cell_length_c       7.1978
_cell_angle_alpha    154.489
_cell_angle_beta     154.489
_cell_angle_gamma    36.3885

_symmetry_Int_Tables_number  107
_chemical_formula_structural  BeSeBr
_chemical_formula_sum  BeSeBr
_cell_volume  69.07650416576033
_cell_formula_units_Z  1
loop_
  _symmetry_equiv_pos_site_id
 _symmetry_equiv_pos_as_xyz
 1  'x, y, z'
loop_
 _atom_site_type_symbol
 _atom_site_label
 _atom_site_symmetry_multiplicity
 _atom_site_fract_x
 _atom_site_fract_y
 _atom_site_fract_z
 _atom_site_fract_occupancy
 Be  Be1  1  0.13992  0.13992  -0.00000  1
 Br  Br1  1  0.29242  0.29242  -0.00000  1
 Se  Se1  1  0.56766  0.56766  0.00000  1
