CIF file written using JARVIS-Tools package.
data_TiBeHg
_symmetry_space_group_name_H-M  'P3m1'
_cell_length_a       3.24503
_cell_length_b       3.24503
_cell_length_c       5.48125
_cell_angle_alpha    90
_cell_angle_beta     90
_cell_angle_gamma    120

_symmetry_Int_Tables_number  156
_chemical_formula_structural  TiBeHg
_chemical_formula_sum  TiBeHg
_cell_volume  49.986159635001236
_cell_formula_units_Z  1
loop_
  _symmetry_equiv_pos_site_id
 _symmetry_equiv_pos_as_xyz
 1  'x, y, z'
loop_
 _atom_site_type_symbol
 _atom_site_label
 _atom_site_symmetry_multiplicity
 _atom_site_fract_x
 _atom_site_fract_y
 _atom_site_fract_z
 _atom_site_fract_occupancy
 Be  Be1  1  0.00000  0.00000  -0.00213  1
 Hg  Hg1  1  0.33333  0.66667  0.70384  1
 Ti  Ti1  1  0.66667  0.33333  0.29829  1
