CIF file written using JARVIS-Tools package.
data_K3Cu3As2
_symmetry_space_group_name_H-M  'R-3m'
_cell_length_a       7.59539
_cell_length_b       7.59539
_cell_length_c       7.59539
_cell_angle_alpha    44.6209
_cell_angle_beta     44.621
_cell_angle_gamma    44.6209

_symmetry_Int_Tables_number  166
_chemical_formula_structural  K3Cu3As2
_chemical_formula_sum  K3Cu3As2
_cell_volume  196.6141855733133
_cell_formula_units_Z  1
loop_
  _symmetry_equiv_pos_site_id
 _symmetry_equiv_pos_as_xyz
 1  'x, y, z'
loop_
 _atom_site_type_symbol
 _atom_site_label
 _atom_site_symmetry_multiplicity
 _atom_site_fract_x
 _atom_site_fract_y
 _atom_site_fract_z
 _atom_site_fract_occupancy
 As  As1  1  0.74926  0.74926  0.74926  1
 As  As2  1  0.25074  0.25074  0.25074  1
 Cu  Cu1  1  0.50000  0.50000  0.00000  1
 Cu  Cu2  1  -0.00000  0.50000  0.50000  1
 Cu  Cu3  1  0.50000  -0.00000  0.50000  1
 K  K1  1  0.08912  0.08912  0.08912  1
 K  K2  1  0.91088  0.91088  0.91088  1
 K  K3  1  0.50000  0.50000  0.50000  1
