CIF file written using JARVIS-Tools package.
data_BeV2Co
_symmetry_space_group_name_H-M  'P4mm'
_cell_length_a       2.90114
_cell_length_b       2.90114
_cell_length_c       5.4183
_cell_angle_alpha    90
_cell_angle_beta     90
_cell_angle_gamma    90

_symmetry_Int_Tables_number  99
_chemical_formula_structural  BeV2Co
_chemical_formula_sum  BeV2Co
_cell_volume  45.603920141759566
_cell_formula_units_Z  1
loop_
  _symmetry_equiv_pos_site_id
 _symmetry_equiv_pos_as_xyz
 1  'x, y, z'
loop_
 _atom_site_type_symbol
 _atom_site_label
 _atom_site_symmetry_multiplicity
 _atom_site_fract_x
 _atom_site_fract_y
 _atom_site_fract_z
 _atom_site_fract_occupancy
 Be  Be1  1  0.00000  0.00000  0.51978  1
 Co  Co1  1  0.50000  0.50000  0.72288  1
 V  V1  1  0.00000  0.00000  0.99016  1
 V  V2  1  0.50000  0.50000  0.26718  1
