CIF file written using JARVIS-Tools package.
data_Be2HgTe
_symmetry_space_group_name_H-M  'I-4m2'
_cell_length_a       6.89821
_cell_length_b       6.89821
_cell_length_c       6.89821
_cell_angle_alpha    149.981
_cell_angle_beta     149.981
_cell_angle_gamma    42.9687

_symmetry_Int_Tables_number  119
_chemical_formula_structural  Be2HgTe
_chemical_formula_sum  Be2HgTe
_cell_volume  81.94352022456886
_cell_formula_units_Z  1
loop_
  _symmetry_equiv_pos_site_id
 _symmetry_equiv_pos_as_xyz
 1  'x, y, z'
loop_
 _atom_site_type_symbol
 _atom_site_label
 _atom_site_symmetry_multiplicity
 _atom_site_fract_x
 _atom_site_fract_y
 _atom_site_fract_z
 _atom_site_fract_occupancy
 Be  Be1  1  0.00000  0.00000  0.00000  1
 Be  Be2  1  0.25000  0.75000  0.50000  1
 Hg  Hg1  1  0.50000  0.50000  0.00000  1
 Te  Te1  1  0.75000  0.25000  0.50000  1
