CIF file written using JARVIS-Tools package.
data_ThAlNi
_symmetry_space_group_name_H-M  'P-62m'
_cell_length_a       4.08814
_cell_length_b       7.09679
_cell_length_c       7.09687
_cell_angle_alpha    120
_cell_angle_beta     90
_cell_angle_gamma    90

_symmetry_Int_Tables_number  189
_chemical_formula_structural  ThAlNi
_chemical_formula_sum  Th3Al3Ni3
_cell_volume  178.314646950359
_cell_formula_units_Z  3
loop_
  _symmetry_equiv_pos_site_id
 _symmetry_equiv_pos_as_xyz
 1  'x, y, z'
loop_
 _atom_site_type_symbol
 _atom_site_label
 _atom_site_symmetry_multiplicity
 _atom_site_fract_x
 _atom_site_fract_y
 _atom_site_fract_z
 _atom_site_fract_occupancy
 Al  Al1  1  0.00000  0.22886  -0.00000  1
 Al  Al2  1  0.00000  0.77112  0.77113  1
 Al  Al3  1  0.00000  0.99999  0.22887  1
 Ni  Ni1  1  0.00000  0.33332  0.66667  1
 Ni  Ni2  1  0.00000  0.66665  0.33333  1
 Ni  Ni3  1  0.50000  -0.00001  -0.00000  1
 Th  Th1  1  0.50000  0.57954  0.00000  1
 Th  Th2  1  0.50000  0.42044  0.42045  1
 Th  Th3  1  0.50000  0.99999  0.57955  1
