CIF file written using JARVIS-Tools package.
data_CaBe2Cl
_symmetry_space_group_name_H-M  'P4mm'
_cell_length_a       3.16279
_cell_length_b       3.16279
_cell_length_c       7.90825
_cell_angle_alpha    90
_cell_angle_beta     90
_cell_angle_gamma    90

_symmetry_Int_Tables_number  99
_chemical_formula_structural  CaBe2Cl
_chemical_formula_sum  CaBe2Cl
_cell_volume  79.1081007928766
_cell_formula_units_Z  1
loop_
  _symmetry_equiv_pos_site_id
 _symmetry_equiv_pos_as_xyz
 1  'x, y, z'
loop_
 _atom_site_type_symbol
 _atom_site_label
 _atom_site_symmetry_multiplicity
 _atom_site_fract_x
 _atom_site_fract_y
 _atom_site_fract_z
 _atom_site_fract_occupancy
 Be  Be1  1  0.00000  0.00000  0.12599  1
 Be  Be2  1  0.50000  0.50000  0.19451  1
 Ca  Ca1  1  0.00000  0.00000  0.49266  1
 Cl  Cl1  1  0.50000  0.50000  0.68684  1
