CIF file written using JARVIS-Tools package.
data_BeRh2Cl
_symmetry_space_group_name_H-M  'I-4m2'
_cell_length_a       5.38051
_cell_length_b       5.38051
_cell_length_c       5.38051
_cell_angle_alpha    143.124
_cell_angle_beta     143.124
_cell_angle_gamma    53.14

_symmetry_Int_Tables_number  119
_chemical_formula_structural  BeRh2Cl
_chemical_formula_sum  BeRh2Cl
_cell_volume  55.74488601035877
_cell_formula_units_Z  1
loop_
  _symmetry_equiv_pos_site_id
 _symmetry_equiv_pos_as_xyz
 1  'x, y, z'
loop_
 _atom_site_type_symbol
 _atom_site_label
 _atom_site_symmetry_multiplicity
 _atom_site_fract_x
 _atom_site_fract_y
 _atom_site_fract_z
 _atom_site_fract_occupancy
 Be  Be1  1  0.50000  0.50000  0.00000  1
 Cl  Cl1  1  0.75000  0.25000  0.50000  1
 Rh  Rh1  1  0.00000  0.00000  0.00000  1
 Rh  Rh2  1  0.25000  0.75000  0.50000  1
