CIF file written using JARVIS-Tools package.
data_Be2PdW
_symmetry_space_group_name_H-M  'P4/mmm'
_cell_length_a       2.75727
_cell_length_b       2.75727
_cell_length_c       6.17367
_cell_angle_alpha    90
_cell_angle_beta     90
_cell_angle_gamma    90

_symmetry_Int_Tables_number  123
_chemical_formula_structural  Be2PdW
_chemical_formula_sum  Be2PdW
_cell_volume  46.935627956238164
_cell_formula_units_Z  1
loop_
  _symmetry_equiv_pos_site_id
 _symmetry_equiv_pos_as_xyz
 1  'x, y, z'
loop_
 _atom_site_type_symbol
 _atom_site_label
 _atom_site_symmetry_multiplicity
 _atom_site_fract_x
 _atom_site_fract_y
 _atom_site_fract_z
 _atom_site_fract_occupancy
 Be  Be1  1  0.00000  0.00000  0.77421  1
 Be  Be2  1  0.00000  0.00000  0.22579  1
 Pd  Pd1  1  0.50000  0.50000  0.00000  1
 W  W1  1  0.50000  0.50000  0.50000  1
