CIF file written using JARVIS-Tools package.
data_KBe2Cr
_symmetry_space_group_name_H-M  'P4/mmm'
_cell_length_a       2.95739
_cell_length_b       2.95739
_cell_length_c       7.18225
_cell_angle_alpha    90
_cell_angle_beta     90
_cell_angle_gamma    90

_symmetry_Int_Tables_number  123
_chemical_formula_structural  KBe2Cr
_chemical_formula_sum  KBe2Cr
_cell_volume  62.81689204962975
_cell_formula_units_Z  1
loop_
  _symmetry_equiv_pos_site_id
 _symmetry_equiv_pos_as_xyz
 1  'x, y, z'
loop_
 _atom_site_type_symbol
 _atom_site_label
 _atom_site_symmetry_multiplicity
 _atom_site_fract_x
 _atom_site_fract_y
 _atom_site_fract_z
 _atom_site_fract_occupancy
 Be  Be1  1  0.00000  0.00000  0.85789  1
 Be  Be2  1  0.00000  0.00000  0.14211  1
 Cr  Cr1  1  0.50000  0.50000  0.00000  1
 K  K1  1  0.50000  0.50000  0.50000  1
