CIF file written using JARVIS-Tools package.
data_TbNi2Ge2
_symmetry_space_group_name_H-M  'I4/mmm'
_cell_length_a       4.07546
_cell_length_b       4.07546
_cell_length_c       5.68014
_cell_angle_alpha    111.023
_cell_angle_beta     111.023
_cell_angle_gamma    90

_symmetry_Int_Tables_number  139
_chemical_formula_structural  TbNi2Ge2
_chemical_formula_sum  TbNi2Ge2
_cell_volume  81.29976085790321
_cell_formula_units_Z  1
loop_
  _symmetry_equiv_pos_site_id
 _symmetry_equiv_pos_as_xyz
 1  'x, y, z'
loop_
 _atom_site_type_symbol
 _atom_site_label
 _atom_site_symmetry_multiplicity
 _atom_site_fract_x
 _atom_site_fract_y
 _atom_site_fract_z
 _atom_site_fract_occupancy
 Ge  Ge1  1  0.62888  0.62888  0.25776  1
 Ge  Ge2  1  0.37112  0.37112  0.74224  1
 Ni  Ni1  1  0.25000  0.75000  0.50000  1
 Ni  Ni2  1  0.75000  0.25000  0.50000  1
 Tb  Tb1  1  0.00000  0.00000  0.00000  1
