CIF file written using JARVIS-Tools package.
data_Mg6GaNi
_symmetry_space_group_name_H-M  'Amm2'
_cell_length_a       6.05656
_cell_length_b       6.29618
_cell_length_c       4.70413
_cell_angle_alpha    90
_cell_angle_beta     90
_cell_angle_gamma    121.318

_symmetry_Int_Tables_number  38
_chemical_formula_structural  Mg6GaNi
_chemical_formula_sum  Mg6GaNi
_cell_volume  153.24717883642808
_cell_formula_units_Z  1
loop_
  _symmetry_equiv_pos_site_id
 _symmetry_equiv_pos_as_xyz
 1  'x, y, z'
loop_
 _atom_site_type_symbol
 _atom_site_label
 _atom_site_symmetry_multiplicity
 _atom_site_fract_x
 _atom_site_fract_y
 _atom_site_fract_z
 _atom_site_fract_occupancy
 Ga  Ga1  1  0.17146  0.83573  0.25000  1
 Mg  Mg1  1  0.67672  0.33615  0.25000  1
 Mg  Mg2  1  0.67672  0.84057  0.25000  1
 Mg  Mg3  1  0.31860  0.17184  0.75000  1
 Mg  Mg4  1  0.31860  0.64676  0.75000  1
 Mg  Mg5  1  0.84436  0.17218  0.75000  1
 Mg  Mg6  1  0.83563  0.66782  0.75000  1
 Ni  Ni1  1  0.15791  0.32895  0.25000  1
