CIF file written using JARVIS-Tools package.
data_MgBeV2
_symmetry_space_group_name_H-M  'P4mm'
_cell_length_a       2.60239
_cell_length_b       2.60239
_cell_length_c       8.0858
_cell_angle_alpha    90
_cell_angle_beta     90
_cell_angle_gamma    90

_symmetry_Int_Tables_number  99
_chemical_formula_structural  MgBeV2
_chemical_formula_sum  MgBeV2
_cell_volume  54.760703671552726
_cell_formula_units_Z  1
loop_
  _symmetry_equiv_pos_site_id
 _symmetry_equiv_pos_as_xyz
 1  'x, y, z'
loop_
 _atom_site_type_symbol
 _atom_site_label
 _atom_site_symmetry_multiplicity
 _atom_site_fract_x
 _atom_site_fract_y
 _atom_site_fract_z
 _atom_site_fract_occupancy
 Be  Be1  1  0.00000  0.00000  0.48312  1
 Mg  Mg1  1  0.50000  0.50000  0.72363  1
 V  V1  1  0.00000  0.00000  0.01632  1
 V  V2  1  0.50000  0.50000  0.27694  1
