CIF file written using JARVIS-Tools package.
data_MgSn
_symmetry_space_group_name_H-M  'Fm-3m'
_cell_length_a       5.97494
_cell_length_b       5.97494
_cell_length_c       5.97494
_cell_angle_alpha    90
_cell_angle_beta     90
_cell_angle_gamma    90

_symmetry_Int_Tables_number  225
_chemical_formula_structural  MgSn
_chemical_formula_sum  Mg4Sn4
_cell_volume  213.3052636745714
_cell_formula_units_Z  4
loop_
  _symmetry_equiv_pos_site_id
 _symmetry_equiv_pos_as_xyz
 1  'x, y, z'
loop_
 _atom_site_type_symbol
 _atom_site_label
 _atom_site_symmetry_multiplicity
 _atom_site_fract_x
 _atom_site_fract_y
 _atom_site_fract_z
 _atom_site_fract_occupancy
 Mg  Mg1  1  0.00000  0.00000  0.00000  1
 Mg  Mg2  1  0.00000  0.50000  0.50000  1
 Mg  Mg3  1  0.50000  0.00000  0.50000  1
 Mg  Mg4  1  0.50000  0.50000  0.00000  1
 Sn  Sn1  1  0.50000  0.00000  0.00000  1
 Sn  Sn2  1  0.50000  0.50000  0.50000  1
 Sn  Sn3  1  0.00000  0.00000  0.50000  1
 Sn  Sn4  1  0.00000  0.50000  0.00000  1
