CIF file written using JARVIS-Tools package.
data_GePd2
_symmetry_space_group_name_H-M  'P-62m'
_cell_length_a       6.77763
_cell_length_b       6.77763
_cell_length_c       3.4999
_cell_angle_alpha    90
_cell_angle_beta     90
_cell_angle_gamma    120

_symmetry_Int_Tables_number  189
_chemical_formula_structural  GePd2
_chemical_formula_sum  Ge3Pd6
_cell_volume  139.23290003825514
_cell_formula_units_Z  3
loop_
  _symmetry_equiv_pos_site_id
 _symmetry_equiv_pos_as_xyz
 1  'x, y, z'
loop_
 _atom_site_type_symbol
 _atom_site_label
 _atom_site_symmetry_multiplicity
 _atom_site_fract_x
 _atom_site_fract_y
 _atom_site_fract_z
 _atom_site_fract_occupancy
 Ge  Ge1  1  0.66667  0.33333  0.00000  1
 Ge  Ge2  1  0.33333  0.66667  0.00000  1
 Ge  Ge3  1  0.00000  0.00000  0.50000  1
 Pd  Pd1  1  0.00000  0.39133  0.50000  1
 Pd  Pd2  1  0.60867  0.60867  0.50000  1
 Pd  Pd3  1  0.39133  0.00000  0.50000  1
 Pd  Pd4  1  0.73016  0.00000  0.00000  1
 Pd  Pd5  1  0.26984  0.26984  0.00000  1
 Pd  Pd6  1  0.00000  0.73016  0.00000  1
