CIF file written using JARVIS-Tools package.
data_FeN2Cl2
_symmetry_space_group_name_H-M  'Cmmm'
_cell_length_a       3.41787
_cell_length_b       4.82303
_cell_length_c       4.82303
_cell_angle_alpha    86.5744
_cell_angle_beta     90
_cell_angle_gamma    90

_symmetry_Int_Tables_number  65
_chemical_formula_structural  FeN2Cl2
_chemical_formula_sum  FeN2Cl2
_cell_volume  79.36317782403245
_cell_formula_units_Z  1
loop_
  _symmetry_equiv_pos_site_id
 _symmetry_equiv_pos_as_xyz
 1  'x, y, z'
loop_
 _atom_site_type_symbol
 _atom_site_label
 _atom_site_symmetry_multiplicity
 _atom_site_fract_x
 _atom_site_fract_y
 _atom_site_fract_z
 _atom_site_fract_occupancy
 Cl  Cl1  1  0.50000  0.73918  0.26082  1
 Cl  Cl2  1  0.50000  0.26082  0.73918  1
 Fe  Fe1  1  0.00000  0.50000  0.50000  1
 N  N1  1  0.00000  0.74345  0.74345  1
 N  N2  1  0.00000  0.25655  0.25655  1
