CIF file written using JARVIS-Tools package.
data_BeNi2W
_symmetry_space_group_name_H-M  'F-43m'
_cell_length_a       4.01164
_cell_length_b       4.01164
_cell_length_c       4.01164
_cell_angle_alpha    120.059
_cell_angle_beta     120.059
_cell_angle_gamma    89.8972

_symmetry_Int_Tables_number  216
_chemical_formula_structural  BeNi2W
_chemical_formula_sum  BeNi2W
_cell_volume  45.60993554423797
_cell_formula_units_Z  1
loop_
  _symmetry_equiv_pos_site_id
 _symmetry_equiv_pos_as_xyz
 1  'x, y, z'
loop_
 _atom_site_type_symbol
 _atom_site_label
 _atom_site_symmetry_multiplicity
 _atom_site_fract_x
 _atom_site_fract_y
 _atom_site_fract_z
 _atom_site_fract_occupancy
 Be  Be1  1  0.75000  0.25000  0.50000  1
 Ni  Ni1  1  0.00000  0.00000  0.00000  1
 Ni  Ni2  1  0.25000  0.75000  0.50000  1
 W  W1  1  0.50000  0.50000  0.00000  1
