CIF file written using JARVIS-Tools package.
data_CaZn2N2
_symmetry_space_group_name_H-M  'P-3m1'
_cell_length_a       3.46667
_cell_length_b       3.46666
_cell_length_c       6.03167
_cell_angle_alpha    90
_cell_angle_beta     90
_cell_angle_gamma    120

_symmetry_Int_Tables_number  164
_chemical_formula_structural  CaZn2N2
_chemical_formula_sum  CaZn2N2
_cell_volume  62.77585929334228
_cell_formula_units_Z  1
loop_
  _symmetry_equiv_pos_site_id
 _symmetry_equiv_pos_as_xyz
 1  'x, y, z'
loop_
 _atom_site_type_symbol
 _atom_site_label
 _atom_site_symmetry_multiplicity
 _atom_site_fract_x
 _atom_site_fract_y
 _atom_site_fract_z
 _atom_site_fract_occupancy
 Ca  Ca1  1  0.00000  0.00000  0.50000  1
 N  N1  1  0.66666  0.33333  0.75803  1
 N  N2  1  0.33334  0.66667  0.24197  1
 Zn  Zn1  1  0.66667  0.33333  0.14068  1
 Zn  Zn2  1  0.33333  0.66667  0.85932  1
