CIF file written using JARVIS-Tools package.
data_HfSiS
_symmetry_space_group_name_H-M  'P4/nmm'
_cell_length_a       3.54923
_cell_length_b       3.54923
_cell_length_c       8.01125
_cell_angle_alpha    90
_cell_angle_beta     90
_cell_angle_gamma    90

_symmetry_Int_Tables_number  129
_chemical_formula_structural  HfSiS
_chemical_formula_sum  Hf2Si2S2
_cell_volume  100.91783045632135
_cell_formula_units_Z  2
loop_
  _symmetry_equiv_pos_site_id
 _symmetry_equiv_pos_as_xyz
 1  'x, y, z'
loop_
 _atom_site_type_symbol
 _atom_site_label
 _atom_site_symmetry_multiplicity
 _atom_site_fract_x
 _atom_site_fract_y
 _atom_site_fract_z
 _atom_site_fract_occupancy
 Hf  Hf1  1  0.50000  0.00000  0.73022  1
 Hf  Hf2  1  0.00000  0.50000  0.26978  1
 S  S1  1  0.00000  0.50000  0.62040  1
 S  S2  1  0.50000  0.00000  0.37960  1
 Si  Si1  1  0.50000  0.50000  0.00000  1
 Si  Si2  1  0.00000  0.00000  0.00000  1
