CIF file written using JARVIS-Tools package.
data_NClO3
_symmetry_space_group_name_H-M  'R3m'
_cell_length_a       4.3588
_cell_length_b       4.3588
_cell_length_c       4.3588
_cell_angle_alpha    87.8068
_cell_angle_beta     87.8068
_cell_angle_gamma    87.8067

_symmetry_Int_Tables_number  160
_chemical_formula_structural  NClO3
_chemical_formula_sum  NClO3
_cell_volume  82.63588874606295
_cell_formula_units_Z  1
loop_
  _symmetry_equiv_pos_site_id
 _symmetry_equiv_pos_as_xyz
 1  'x, y, z'
loop_
 _atom_site_type_symbol
 _atom_site_label
 _atom_site_symmetry_multiplicity
 _atom_site_fract_x
 _atom_site_fract_y
 _atom_site_fract_z
 _atom_site_fract_occupancy
 Cl  Cl1  1  0.49376  0.49376  0.49376  1
 N  N1  1  0.06412  0.06412  0.06412  1
 O  O1  1  0.17513  0.58100  0.58100  1
 O  O2  1  0.58100  0.17513  0.58100  1
 O  O3  1  0.58100  0.58100  0.17513  1
