CIF file written using JARVIS-Tools package.
data_Te4Mo3WS4
_symmetry_space_group_name_H-M  'P3m1'
_cell_length_a       3.37113
_cell_length_b       3.37113
_cell_length_c       35.6889
_cell_angle_alpha    90.001
_cell_angle_beta     90.0003
_cell_angle_gamma    120

_symmetry_Int_Tables_number  156
_chemical_formula_structural  Te4Mo3WS4
_chemical_formula_sum  Te4Mo3WS4
_cell_volume  351.24859463153996
_cell_formula_units_Z  1
loop_
  _symmetry_equiv_pos_site_id
 _symmetry_equiv_pos_as_xyz
 1  'x, y, z'
loop_
 _atom_site_type_symbol
 _atom_site_label
 _atom_site_symmetry_multiplicity
 _atom_site_fract_x
 _atom_site_fract_y
 _atom_site_fract_z
 _atom_site_fract_occupancy
 Mo  Mo1  1  0.33332  0.66663  0.09481  1
 Mo  Mo2  1  0.33332  0.66665  0.46935  1
 Mo  Mo3  1  0.66668  0.33337  0.65669  1
 S  S1  1  0.66664  0.33329  0.05251  1
 S  S2  1  0.66664  0.33330  0.42702  1
 S  S3  1  0.66666  0.33331  0.13718  1
 S  S4  1  0.66667  0.33333  0.51167  1
 Te  Te1  1  0.33336  0.66671  0.33538  1
 Te  Te2  1  0.33336  0.66671  0.70959  1
 Te  Te3  1  0.33333  0.66666  0.22881  1
 Te  Te4  1  0.33335  0.66669  0.60363  1
 W  W1  1  0.66668  0.33335  0.28210  1
