CIF file written using JARVIS-Tools package.
data_ScBeSn2
_symmetry_space_group_name_H-M  'P4mm'
_cell_length_a       3.15589
_cell_length_b       3.15589
_cell_length_c       8.72614
_cell_angle_alpha    90
_cell_angle_beta     90
_cell_angle_gamma    90

_symmetry_Int_Tables_number  99
_chemical_formula_structural  ScBeSn2
_chemical_formula_sum  ScBeSn2
_cell_volume  86.90944482584126
_cell_formula_units_Z  1
loop_
  _symmetry_equiv_pos_site_id
 _symmetry_equiv_pos_as_xyz
 1  'x, y, z'
loop_
 _atom_site_type_symbol
 _atom_site_label
 _atom_site_symmetry_multiplicity
 _atom_site_fract_x
 _atom_site_fract_y
 _atom_site_fract_z
 _atom_site_fract_occupancy
 Be  Be1  1  0.00000  0.00000  0.51366  1
 Sc  Sc1  1  0.50000  0.50000  0.70475  1
 Sn  Sn1  1  0.00000  0.00000  0.96347  1
 Sn  Sn2  1  0.50000  0.50000  0.31812  1
