CIF file written using JARVIS-Tools package.
data_Li2BeFe
_symmetry_space_group_name_H-M  'P4mm'
_cell_length_a       2.5384
_cell_length_b       2.5384
_cell_length_c       7.64688
_cell_angle_alpha    90
_cell_angle_beta     90
_cell_angle_gamma    90

_symmetry_Int_Tables_number  99
_chemical_formula_structural  Li2BeFe
_chemical_formula_sum  Li2BeFe
_cell_volume  49.27242411040217
_cell_formula_units_Z  1
loop_
  _symmetry_equiv_pos_site_id
 _symmetry_equiv_pos_as_xyz
 1  'x, y, z'
loop_
 _atom_site_type_symbol
 _atom_site_label
 _atom_site_symmetry_multiplicity
 _atom_site_fract_x
 _atom_site_fract_y
 _atom_site_fract_z
 _atom_site_fract_occupancy
 Be  Be1  1  0.00000  0.00000  0.52795  1
 Fe  Fe1  1  0.50000  0.50000  0.70981  1
 Li  Li1  1  0.00000  0.00000  0.97256  1
 Li  Li2  1  0.50000  0.50000  0.28968  1
