CIF file written using JARVIS-Tools package.
data_YBeMo4
_symmetry_space_group_name_H-M  'F-43m'
_cell_length_a       5.33487
_cell_length_b       5.33487
_cell_length_c       5.33487
_cell_angle_alpha    60
_cell_angle_beta     60
_cell_angle_gamma    60

_symmetry_Int_Tables_number  216
_chemical_formula_structural  YBeMo4
_chemical_formula_sum  YBeMo4
_cell_volume  107.36313448700719
_cell_formula_units_Z  1
loop_
  _symmetry_equiv_pos_site_id
 _symmetry_equiv_pos_as_xyz
 1  'x, y, z'
loop_
 _atom_site_type_symbol
 _atom_site_label
 _atom_site_symmetry_multiplicity
 _atom_site_fract_x
 _atom_site_fract_y
 _atom_site_fract_z
 _atom_site_fract_occupancy
 Be  Be1  1  0.00000  0.00000  0.00000  1
 Mo  Mo1  1  0.12251  0.62583  0.62583  1
 Mo  Mo2  1  0.62583  0.62583  0.62583  1
 Mo  Mo3  1  0.62583  0.12251  0.62583  1
 Mo  Mo4  1  0.62583  0.62583  0.12251  1
 Y  Y1  1  0.25000  0.25000  0.25000  1
