CIF file written using JARVIS-Tools package.
data_NbO
_symmetry_space_group_name_H-M  'Pm-3m'
_cell_length_a       4.26313
_cell_length_b       4.26313
_cell_length_c       4.26313
_cell_angle_alpha    90
_cell_angle_beta     90
_cell_angle_gamma    90

_symmetry_Int_Tables_number  221
_chemical_formula_structural  NbO
_chemical_formula_sum  Nb3O3
_cell_volume  77.47936365969375
_cell_formula_units_Z  3
loop_
  _symmetry_equiv_pos_site_id
 _symmetry_equiv_pos_as_xyz
 1  'x, y, z'
loop_
 _atom_site_type_symbol
 _atom_site_label
 _atom_site_symmetry_multiplicity
 _atom_site_fract_x
 _atom_site_fract_y
 _atom_site_fract_z
 _atom_site_fract_occupancy
 Nb  Nb1  1  0.00000  0.50000  0.50000  1
 Nb  Nb2  1  0.50000  0.50000  0.00000  1
 Nb  Nb3  1  0.50000  0.00000  0.50000  1
 O  O1  1  0.00000  0.00000  0.50000  1
 O  O2  1  0.00000  0.50000  0.00000  1
 O  O3  1  0.50000  0.00000  0.00000  1
