CIF file written using JARVIS-Tools package.
data_TiBeGe2
_symmetry_space_group_name_H-M  'I-4m2'
_cell_length_a       5.03113
_cell_length_b       5.03113
_cell_length_c       5.03113
_cell_angle_alpha    137.589
_cell_angle_beta     137.589
_cell_angle_gamma    61.5335

_symmetry_Int_Tables_number  119
_chemical_formula_structural  TiBeGe2
_chemical_formula_sum  TiBeGe2
_cell_volume  57.26857973382561
_cell_formula_units_Z  1
loop_
  _symmetry_equiv_pos_site_id
 _symmetry_equiv_pos_as_xyz
 1  'x, y, z'
loop_
 _atom_site_type_symbol
 _atom_site_label
 _atom_site_symmetry_multiplicity
 _atom_site_fract_x
 _atom_site_fract_y
 _atom_site_fract_z
 _atom_site_fract_occupancy
 Be  Be1  1  0.75000  0.25000  0.50000  1
 Ge  Ge1  1  0.00000  0.00000  0.00000  1
 Ge  Ge2  1  0.25000  0.75000  0.50000  1
 Ti  Ti1  1  0.50000  0.50000  0.00000  1
