CIF file written using JARVIS-Tools package.
data_MgBi
_symmetry_space_group_name_H-M  'R-3m'
_cell_length_a       3.94913
_cell_length_b       3.94912
_cell_length_c       12.4114
_cell_angle_alpha    90
_cell_angle_beta     90
_cell_angle_gamma    120

_symmetry_Int_Tables_number  166
_chemical_formula_structural  MgBi
_chemical_formula_sum  Mg3Bi3
_cell_volume  167.6304227863317
_cell_formula_units_Z  3
loop_
  _symmetry_equiv_pos_site_id
 _symmetry_equiv_pos_as_xyz
 1  'x, y, z'
loop_
 _atom_site_type_symbol
 _atom_site_label
 _atom_site_symmetry_multiplicity
 _atom_site_fract_x
 _atom_site_fract_y
 _atom_site_fract_z
 _atom_site_fract_occupancy
 Bi  Bi1  1  0.00000  0.00000  0.00000  1
 Bi  Bi2  1  0.66667  0.33333  0.33333  1
 Bi  Bi3  1  0.33333  0.66667  0.66667  1
 Mg  Mg1  1  0.33333  0.66667  0.16667  1
 Mg  Mg2  1  0.00000  0.00000  0.50000  1
 Mg  Mg3  1  0.66667  0.33333  0.83333  1
