CIF file written using JARVIS-Tools package.
data_K2BeRu
_symmetry_space_group_name_H-M  'I4/mmm'
_cell_length_a       6.04307
_cell_length_b       6.04307
_cell_length_c       6.04307
_cell_angle_alpha    142.727
_cell_angle_beta     142.727
_cell_angle_gamma    53.7345

_symmetry_Int_Tables_number  139
_chemical_formula_structural  K2BeRu
_chemical_formula_sum  K2BeRu
_cell_volume  80.41341278477421
_cell_formula_units_Z  1
loop_
  _symmetry_equiv_pos_site_id
 _symmetry_equiv_pos_as_xyz
 1  'x, y, z'
loop_
 _atom_site_type_symbol
 _atom_site_label
 _atom_site_symmetry_multiplicity
 _atom_site_fract_x
 _atom_site_fract_y
 _atom_site_fract_z
 _atom_site_fract_occupancy
 Be  Be1  1  0.75000  0.25000  0.50000  1
 K  K1  1  0.00000  0.00000  0.00000  1
 K  K2  1  0.50000  0.50000  0.00000  1
 Ru  Ru1  1  0.25000  0.75000  0.50000  1
