CIF file written using JARVIS-Tools package.
data_Be2RhCl
_symmetry_space_group_name_H-M  'P4mm'
_cell_length_a       3.04386
_cell_length_b       3.04386
_cell_length_c       6.36473
_cell_angle_alpha    90
_cell_angle_beta     90
_cell_angle_gamma    90

_symmetry_Int_Tables_number  99
_chemical_formula_structural  Be2RhCl
_chemical_formula_sum  Be2RhCl
_cell_volume  58.96975822164648
_cell_formula_units_Z  1
loop_
  _symmetry_equiv_pos_site_id
 _symmetry_equiv_pos_as_xyz
 1  'x, y, z'
loop_
 _atom_site_type_symbol
 _atom_site_label
 _atom_site_symmetry_multiplicity
 _atom_site_fract_x
 _atom_site_fract_y
 _atom_site_fract_z
 _atom_site_fract_occupancy
 Be  Be1  1  0.00000  0.00000  0.98444  1
 Be  Be2  1  0.50000  0.50000  0.22284  1
 Cl  Cl1  1  0.00000  0.00000  0.39759  1
 Rh  Rh1  1  0.50000  0.50000  0.89513  1
