CIF file written using JARVIS-Tools package.
data_HfBe2Sb2
_symmetry_space_group_name_H-M  'I4/mmm'
_cell_length_a       7.33451
_cell_length_b       7.33451
_cell_length_c       7.33451
_cell_angle_alpha    150.874
_cell_angle_beta     150.874
_cell_angle_gamma    41.6602

_symmetry_Int_Tables_number  139
_chemical_formula_structural  HfBe2Sb2
_chemical_formula_sum  HfBe2Sb2
_cell_volume  93.26219218357842
_cell_formula_units_Z  1
loop_
  _symmetry_equiv_pos_site_id
 _symmetry_equiv_pos_as_xyz
 1  'x, y, z'
loop_
 _atom_site_type_symbol
 _atom_site_label
 _atom_site_symmetry_multiplicity
 _atom_site_fract_x
 _atom_site_fract_y
 _atom_site_fract_z
 _atom_site_fract_occupancy
 Be  Be1  1  0.75000  0.25000  0.50000  1
 Be  Be2  1  0.25000  0.75000  0.50000  1
 Hf  Hf1  1  0.00000  0.00000  0.00000  1
 Sb  Sb1  1  0.62344  0.62344  0.00000  1
 Sb  Sb2  1  0.37656  0.37656  0.00000  1
