CIF file written using JARVIS-Tools package.
data_YTi2Ga4
_symmetry_space_group_name_H-M  'I4/mmm'
_cell_length_a       5.49221
_cell_length_b       5.49222
_cell_length_c       5.49221
_cell_angle_alpha    104.352
_cell_angle_beta     104.352
_cell_angle_gamma    120.282

_symmetry_Int_Tables_number  139
_chemical_formula_structural  YTi2Ga4
_chemical_formula_sum  YTi2Ga4
_cell_volume  124.07292710237564
_cell_formula_units_Z  1
loop_
  _symmetry_equiv_pos_site_id
 _symmetry_equiv_pos_as_xyz
 1  'x, y, z'
loop_
 _atom_site_type_symbol
 _atom_site_label
 _atom_site_symmetry_multiplicity
 _atom_site_fract_x
 _atom_site_fract_y
 _atom_site_fract_z
 _atom_site_fract_occupancy
 Ga  Ga1  1  0.69689  0.30311  0.00000  1
 Ga  Ga2  1  0.69689  0.69689  0.39377  1
 Ga  Ga3  1  0.30311  0.30311  0.60623  1
 Ga  Ga4  1  0.30311  0.69689  -0.00000  1
 Ti  Ti1  1  0.75000  0.25000  0.50000  1
 Ti  Ti2  1  0.25000  0.75000  0.50000  1
 Y  Y1  1  0.00000  0.00000  0.00000  1
