CIF file written using JARVIS-Tools package.
data_CaAu5
_symmetry_space_group_name_H-M  'F-43m'
_cell_length_a       5.54649
_cell_length_b       5.54649
_cell_length_c       5.54649
_cell_angle_alpha    60
_cell_angle_beta     60
_cell_angle_gamma    60.0001

_symmetry_Int_Tables_number  216
_chemical_formula_structural  CaAu5
_chemical_formula_sum  CaAu5
_cell_volume  120.65317526808741
_cell_formula_units_Z  1
loop_
  _symmetry_equiv_pos_site_id
 _symmetry_equiv_pos_as_xyz
 1  'x, y, z'
loop_
 _atom_site_type_symbol
 _atom_site_label
 _atom_site_symmetry_multiplicity
 _atom_site_fract_x
 _atom_site_fract_y
 _atom_site_fract_z
 _atom_site_fract_occupancy
 Au  Au1  1  0.62472  0.62472  0.12585  1
 Au  Au2  1  0.12585  0.62472  0.62472  1
 Au  Au3  1  0.25000  0.25000  0.25000  1
 Au  Au4  1  0.62472  0.12585  0.62472  1
 Au  Au5  1  0.62472  0.62472  0.62472  1
 Ca  Ca1  1  0.00000  0.00000  0.00000  1
