CIF file written using JARVIS-Tools package.
data_UMn2
_symmetry_space_group_name_H-M  'Fd-3m'
_cell_length_a       4.94207
_cell_length_b       4.94208
_cell_length_c       4.94207
_cell_angle_alpha    60
_cell_angle_beta     60
_cell_angle_gamma    60

_symmetry_Int_Tables_number  227
_chemical_formula_structural  UMn2
_chemical_formula_sum  U2Mn4
_cell_volume  85.35174920414129
_cell_formula_units_Z  2
loop_
  _symmetry_equiv_pos_site_id
 _symmetry_equiv_pos_as_xyz
 1  'x, y, z'
loop_
 _atom_site_type_symbol
 _atom_site_label
 _atom_site_symmetry_multiplicity
 _atom_site_fract_x
 _atom_site_fract_y
 _atom_site_fract_z
 _atom_site_fract_occupancy
 Mn  Mn1  1  0.50000  0.50000  0.50000  1
 Mn  Mn2  1  0.50000  0.50000  -0.00000  1
 Mn  Mn3  1  -0.00000  0.50000  0.50000  1
 Mn  Mn4  1  0.50000  0.00000  0.50000  1
 U  U1  1  0.87500  0.87500  0.87500  1
 U  U2  1  0.12500  0.12500  0.12500  1
