CIF file written using JARVIS-Tools package.
data_ErCo2B2
_symmetry_space_group_name_H-M  'I4/mmm'
_cell_length_a       3.53784
_cell_length_b       3.53784
_cell_length_c       5.23275
_cell_angle_alpha    109.758
_cell_angle_beta     109.758
_cell_angle_gamma    90

_symmetry_Int_Tables_number  139
_chemical_formula_structural  ErCo2B2
_chemical_formula_sum  ErCo2B2
_cell_volume  57.52552537180471
_cell_formula_units_Z  1
loop_
  _symmetry_equiv_pos_site_id
 _symmetry_equiv_pos_as_xyz
 1  'x, y, z'
loop_
 _atom_site_type_symbol
 _atom_site_label
 _atom_site_symmetry_multiplicity
 _atom_site_fract_x
 _atom_site_fract_y
 _atom_site_fract_z
 _atom_site_fract_occupancy
 B  B1  1  0.35410  0.35410  0.70820  1
 B  B2  1  0.64590  0.64590  0.29180  1
 Co  Co1  1  0.25000  0.75000  0.50000  1
 Co  Co2  1  0.75000  0.25000  0.50000  1
 Er  Er1  1  0.00000  0.00000  0.00000  1
