CIF file written using JARVIS-Tools package.
data_LuB2Ru3
_symmetry_space_group_name_H-M  'P6/mmm'
_cell_length_a       5.46852
_cell_length_b       5.46852
_cell_length_c       3.02348
_cell_angle_alpha    90
_cell_angle_beta     90
_cell_angle_gamma    120

_symmetry_Int_Tables_number  191
_chemical_formula_structural  LuB2Ru3
_chemical_formula_sum  LuB2Ru3
_cell_volume  78.3029493929133
_cell_formula_units_Z  1
loop_
  _symmetry_equiv_pos_site_id
 _symmetry_equiv_pos_as_xyz
 1  'x, y, z'
loop_
 _atom_site_type_symbol
 _atom_site_label
 _atom_site_symmetry_multiplicity
 _atom_site_fract_x
 _atom_site_fract_y
 _atom_site_fract_z
 _atom_site_fract_occupancy
 B  B1  1  0.33333  0.66667  0.00000  1
 B  B2  1  0.66667  0.33333  0.00000  1
 Lu  Lu1  1  0.00000  0.00000  0.00000  1
 Ru  Ru1  1  0.50000  0.50000  0.50000  1
 Ru  Ru2  1  0.50000  0.00000  0.50000  1
 Ru  Ru3  1  0.00000  0.50000  0.50000  1
