CIF file written using JARVIS-Tools package.
data_ScBeBi
_symmetry_space_group_name_H-M  'P3m1'
_cell_length_a       4.07107
_cell_length_b       4.07107
_cell_length_c       4.2737
_cell_angle_alpha    90
_cell_angle_beta     90
_cell_angle_gamma    120

_symmetry_Int_Tables_number  156
_chemical_formula_structural  ScBeBi
_chemical_formula_sum  ScBeBi
_cell_volume  61.34124264782134
_cell_formula_units_Z  1
loop_
  _symmetry_equiv_pos_site_id
 _symmetry_equiv_pos_as_xyz
 1  'x, y, z'
loop_
 _atom_site_type_symbol
 _atom_site_label
 _atom_site_symmetry_multiplicity
 _atom_site_fract_x
 _atom_site_fract_y
 _atom_site_fract_z
 _atom_site_fract_occupancy
 Be  Be1  1  0.00000  0.00000  0.02778  1
 Bi  Bi1  1  0.66667  0.33333  0.24956  1
 Sc  Sc1  1  0.33333  0.66667  0.72266  1
