CIF file written using JARVIS-Tools package.
data_BeCu2Rh
_symmetry_space_group_name_H-M  'I4/mmm'
_cell_length_a       4.64684
_cell_length_b       4.64684
_cell_length_c       4.64684
_cell_angle_alpha    136.52
_cell_angle_beta     136.52
_cell_angle_gamma    63.1779

_symmetry_Int_Tables_number  139
_chemical_formula_structural  BeCu2Rh
_chemical_formula_sum  BeCu2Rh
_cell_volume  46.905221394124204
_cell_formula_units_Z  1
loop_
  _symmetry_equiv_pos_site_id
 _symmetry_equiv_pos_as_xyz
 1  'x, y, z'
loop_
 _atom_site_type_symbol
 _atom_site_label
 _atom_site_symmetry_multiplicity
 _atom_site_fract_x
 _atom_site_fract_y
 _atom_site_fract_z
 _atom_site_fract_occupancy
 Be  Be1  1  0.75000  0.25000  0.50000  1
 Cu  Cu1  1  0.00000  0.00000  0.00000  1
 Cu  Cu2  1  0.50000  0.50000  0.00000  1
 Rh  Rh1  1  0.25000  0.75000  0.50000  1
