CIF file written using JARVIS-Tools package.
data_TaPd
_symmetry_space_group_name_H-M  'R-3m'
_cell_length_a       4.94613
_cell_length_b       4.94613
_cell_length_c       4.94613
_cell_angle_alpha    33.6997
_cell_angle_beta     33.6997
_cell_angle_gamma    33.6997

_symmetry_Int_Tables_number  166
_chemical_formula_structural  TaPd
_chemical_formula_sum  TaPd
_cell_volume  33.187769840557195
_cell_formula_units_Z  1
loop_
  _symmetry_equiv_pos_site_id
 _symmetry_equiv_pos_as_xyz
 1  'x, y, z'
loop_
 _atom_site_type_symbol
 _atom_site_label
 _atom_site_symmetry_multiplicity
 _atom_site_fract_x
 _atom_site_fract_y
 _atom_site_fract_z
 _atom_site_fract_occupancy
 Pd  Pd1  1  0.00000  0.00000  0.00000  1
 Ta  Ta1  1  0.50000  0.50000  0.50000  1
