CIF file written using JARVIS-Tools package.
data_SmSi3Os
_symmetry_space_group_name_H-M  'I4mm'
_cell_length_a       4.25318
_cell_length_b       4.25318
_cell_length_c       5.82373
_cell_angle_alpha    111.417
_cell_angle_beta     111.417
_cell_angle_gamma    90

_symmetry_Int_Tables_number  107
_chemical_formula_structural  SmSi3Os
_chemical_formula_sum  SmSi3Os
_cell_volume  90.2140698122196
_cell_formula_units_Z  1
loop_
  _symmetry_equiv_pos_site_id
 _symmetry_equiv_pos_as_xyz
 1  'x, y, z'
loop_
 _atom_site_type_symbol
 _atom_site_label
 _atom_site_symmetry_multiplicity
 _atom_site_fract_x
 _atom_site_fract_y
 _atom_site_fract_z
 _atom_site_fract_occupancy
 Os  Os1  1  0.65421  0.65421  0.30843  1
 Si  Si1  1  0.41937  0.41937  0.83874  1
 Si  Si2  1  0.76126  0.26126  0.52252  1
 Si  Si3  1  0.26126  0.76126  0.52252  1
 Sm  Sm1  1  0.99789  0.99789  0.99578  1
