CIF file written using JARVIS-Tools package.
data_SrB6
_symmetry_space_group_name_H-M  'Pm-3m'
_cell_length_a       4.19124
_cell_length_b       4.19124
_cell_length_c       4.19124
_cell_angle_alpha    90
_cell_angle_beta     90
_cell_angle_gamma    90

_symmetry_Int_Tables_number  221
_chemical_formula_structural  SrB6
_chemical_formula_sum  SrB6
_cell_volume  73.62536818685537
_cell_formula_units_Z  1
loop_
  _symmetry_equiv_pos_site_id
 _symmetry_equiv_pos_as_xyz
 1  'x, y, z'
loop_
 _atom_site_type_symbol
 _atom_site_label
 _atom_site_symmetry_multiplicity
 _atom_site_fract_x
 _atom_site_fract_y
 _atom_site_fract_z
 _atom_site_fract_occupancy
 B  B1  1  0.20284  0.50000  0.50000  1
 B  B2  1  0.50000  0.50000  0.79716  1
 B  B3  1  0.50000  0.20284  0.50000  1
 B  B4  1  0.50000  0.50000  0.20284  1
 B  B5  1  0.50000  0.79716  0.50000  1
 B  B6  1  0.79716  0.50000  0.50000  1
 Sr  Sr1  1  0.00000  0.00000  0.00000  1
