CIF file written using JARVIS-Tools package.
data_Be2Hg2Mo
_symmetry_space_group_name_H-M  'I4/mmm'
_cell_length_a       6.37966
_cell_length_b       6.37966
_cell_length_c       6.37966
_cell_angle_alpha    146.577
_cell_angle_beta     146.577
_cell_angle_gamma    47.9906

_symmetry_Int_Tables_number  139
_chemical_formula_structural  Be2Hg2Mo
_chemical_formula_sum  Be2Hg2Mo
_cell_volume  78.4574562988823
_cell_formula_units_Z  1
loop_
  _symmetry_equiv_pos_site_id
 _symmetry_equiv_pos_as_xyz
 1  'x, y, z'
loop_
 _atom_site_type_symbol
 _atom_site_label
 _atom_site_symmetry_multiplicity
 _atom_site_fract_x
 _atom_site_fract_y
 _atom_site_fract_z
 _atom_site_fract_occupancy
 Be  Be1  1  0.75000  0.25000  0.50000  1
 Be  Be2  1  0.25000  0.75000  0.50000  1
 Hg  Hg1  1  0.61909  0.61909  -0.00000  1
 Hg  Hg2  1  0.38091  0.38091  0.00000  1
 Mo  Mo1  1  0.00000  0.00000  0.00000  1
