CIF file written using JARVIS-Tools package.
data_Be2PIr
_symmetry_space_group_name_H-M  'P4mm'
_cell_length_a       3.02192
_cell_length_b       3.02192
_cell_length_c       4.88623
_cell_angle_alpha    90
_cell_angle_beta     90
_cell_angle_gamma    90

_symmetry_Int_Tables_number  99
_chemical_formula_structural  Be2PIr
_chemical_formula_sum  Be2PIr
_cell_volume  44.621114593107805
_cell_formula_units_Z  1
loop_
  _symmetry_equiv_pos_site_id
 _symmetry_equiv_pos_as_xyz
 1  'x, y, z'
loop_
 _atom_site_type_symbol
 _atom_site_label
 _atom_site_symmetry_multiplicity
 _atom_site_fract_x
 _atom_site_fract_y
 _atom_site_fract_z
 _atom_site_fract_occupancy
 Be  Be1  1  0.00000  0.00000  0.00032  1
 Be  Be2  1  0.50000  0.50000  0.23334  1
 Ir  Ir1  1  0.00000  0.00000  0.47979  1
 P  P1  1  0.50000  0.50000  0.78655  1
