CIF file written using JARVIS-Tools package.
data_SmB2Ir3
_symmetry_space_group_name_H-M  'P6/mmm'
_cell_length_a       3.17535
_cell_length_b       5.49995
_cell_length_c       5.49995
_cell_angle_alpha    119.999
_cell_angle_beta     90.0008
_cell_angle_gamma    90.0008

_symmetry_Int_Tables_number  191
_chemical_formula_structural  SmB2Ir3
_chemical_formula_sum  SmB2Ir3
_cell_volume  83.18510800600433
_cell_formula_units_Z  1
loop_
  _symmetry_equiv_pos_site_id
 _symmetry_equiv_pos_as_xyz
 1  'x, y, z'
loop_
 _atom_site_type_symbol
 _atom_site_label
 _atom_site_symmetry_multiplicity
 _atom_site_fract_x
 _atom_site_fract_y
 _atom_site_fract_z
 _atom_site_fract_occupancy
 B  B1  1  0.50000  0.83334  0.16666  1
 B  B2  1  0.50000  0.16666  0.83334  1
 Ir  Ir1  1  0.00000  0.00000  0.00000  1
 Ir  Ir2  1  0.00000  0.00000  0.50000  1
 Ir  Ir3  1  0.00000  0.50000  -0.00000  1
 Sm  Sm1  1  0.50000  0.50000  0.50000  1
