CIF file written using JARVIS-Tools package.
data_Fe3Si2Ni3
_symmetry_space_group_name_H-M  'Pmmm'
_cell_length_a       3.42955
_cell_length_b       3.64038
_cell_length_c       7.11932
_cell_angle_alpha    90
_cell_angle_beta     90
_cell_angle_gamma    90

_symmetry_Int_Tables_number  47
_chemical_formula_structural  Fe3Si2Ni3
_chemical_formula_sum  Fe3Si2Ni3
_cell_volume  88.88366591037115
_cell_formula_units_Z  1
loop_
  _symmetry_equiv_pos_site_id
 _symmetry_equiv_pos_as_xyz
 1  'x, y, z'
loop_
 _atom_site_type_symbol
 _atom_site_label
 _atom_site_symmetry_multiplicity
 _atom_site_fract_x
 _atom_site_fract_y
 _atom_site_fract_z
 _atom_site_fract_occupancy
 Fe  Fe1  1  0.50000  0.50000  0.25459  1
 Fe  Fe2  1  0.50000  0.50000  0.74541  1
 Fe  Fe3  1  0.00000  0.50000  0.50000  1
 Ni  Ni1  1  0.00000  0.50000  0.00000  1
 Ni  Ni2  1  0.50000  0.00000  0.50000  1
 Ni  Ni3  1  0.50000  0.00000  0.00000  1
 Si  Si1  1  0.00000  0.00000  0.24686  1
 Si  Si2  1  0.00000  0.00000  0.75314  1
