CIF file written using JARVIS-Tools package.
data_Dy2Si3
_symmetry_space_group_name_H-M  'Imm2'
_cell_length_a       7.43377
_cell_length_b       7.43376
_cell_length_c       7.43377
_cell_angle_alpha    149.736
_cell_angle_beta     148.696
_cell_angle_gamma    44.0996

_symmetry_Int_Tables_number  44
_chemical_formula_structural  Dy2Si3
_chemical_formula_sum  Dy2Si3
_cell_volume  107.26341592664694
_cell_formula_units_Z  1
loop_
  _symmetry_equiv_pos_site_id
 _symmetry_equiv_pos_as_xyz
 1  'x, y, z'
loop_
 _atom_site_type_symbol
 _atom_site_label
 _atom_site_symmetry_multiplicity
 _atom_site_fract_x
 _atom_site_fract_y
 _atom_site_fract_z
 _atom_site_fract_occupancy
 Dy  Dy1  1  0.12725  0.12725  0.00000  1
 Dy  Dy2  1  0.37320  0.87320  0.50000  1
 Si  Si1  1  0.96846  0.46846  0.50000  1
 Si  Si2  1  0.69659  0.69659  -0.00000  1
 Si  Si3  1  0.79850  0.29850  0.50000  1
