CIF file written using JARVIS-Tools package.
data_NaFeAs
_symmetry_space_group_name_H-M  'Cmcm'
_cell_length_a       3.8453
_cell_length_b       3.91459
_cell_length_c       7.94566
_cell_angle_alpha    90
_cell_angle_beta     104.003
_cell_angle_gamma    90

_symmetry_Int_Tables_number  63
_chemical_formula_structural  NaFeAs
_chemical_formula_sum  Na2Fe2As2
_cell_volume  116.0498251189701
_cell_formula_units_Z  2
loop_
  _symmetry_equiv_pos_site_id
 _symmetry_equiv_pos_as_xyz
 1  'x, y, z'
loop_
 _atom_site_type_symbol
 _atom_site_label
 _atom_site_symmetry_multiplicity
 _atom_site_fract_x
 _atom_site_fract_y
 _atom_site_fract_z
 _atom_site_fract_occupancy
 As  As1  1  0.33484  0.75000  0.66968  1
 As  As2  1  0.66516  0.25000  0.33032  1
 Fe  Fe1  1  0.74920  0.75000  0.49841  1
 Fe  Fe2  1  0.25080  0.25000  0.50159  1
 Na  Na1  1  0.09315  0.75000  0.18630  1
 Na  Na2  1  0.90685  0.25000  0.81370  1
