CIF file written using JARVIS-Tools package.
data_RbCo2Se2
_symmetry_space_group_name_H-M  'I4/mmm'
_cell_length_a       3.8943
_cell_length_b       3.8943
_cell_length_c       7.38231
_cell_angle_alpha    105.293
_cell_angle_beta     105.293
_cell_angle_gamma    90

_symmetry_Int_Tables_number  139
_chemical_formula_structural  RbCo2Se2
_chemical_formula_sum  RbCo2Se2
_cell_volume  103.87679730260118
_cell_formula_units_Z  1
loop_
  _symmetry_equiv_pos_site_id
 _symmetry_equiv_pos_as_xyz
 1  'x, y, z'
loop_
 _atom_site_type_symbol
 _atom_site_label
 _atom_site_symmetry_multiplicity
 _atom_site_fract_x
 _atom_site_fract_y
 _atom_site_fract_z
 _atom_site_fract_occupancy
 Co  Co1  1  0.25000  0.75000  0.50000  1
 Co  Co2  1  0.75000  0.25000  0.50000  1
 Rb  Rb1  1  0.00000  0.00000  0.00000  1
 Se  Se1  1  0.34683  0.34683  0.69367  1
 Se  Se2  1  0.65317  0.65317  0.30633  1
