CIF file written using JARVIS-Tools package.
data_HoAu2
_symmetry_space_group_name_H-M  'I4/mmm'
_cell_length_a       3.71513
_cell_length_b       3.71512
_cell_length_c       5.21697
_cell_angle_alpha    110.859
_cell_angle_beta     110.858
_cell_angle_gamma    90.0001

_symmetry_Int_Tables_number  139
_chemical_formula_structural  HoAu2
_chemical_formula_sum  HoAu2
_cell_volume  62.21031770168982
_cell_formula_units_Z  1
loop_
  _symmetry_equiv_pos_site_id
 _symmetry_equiv_pos_as_xyz
 1  'x, y, z'
loop_
 _atom_site_type_symbol
 _atom_site_label
 _atom_site_symmetry_multiplicity
 _atom_site_fract_x
 _atom_site_fract_y
 _atom_site_fract_z
 _atom_site_fract_occupancy
 Au  Au1  1  0.66436  0.66436  0.32871  1
 Au  Au2  1  0.33564  0.33564  0.67129  1
 Ho  Ho1  1  0.00000  0.00000  0.00000  1
