CIF file written using JARVIS-Tools package.
data_NbSe2
_symmetry_space_group_name_H-M  'P-6m2'
_cell_length_a       3.48989
_cell_length_b       3.48989
_cell_length_c       25.5391
_cell_angle_alpha    90
_cell_angle_beta     90
_cell_angle_gamma    120

_symmetry_Int_Tables_number  187
_chemical_formula_structural  NbSe2
_chemical_formula_sum  Nb4Se8
_cell_volume  269.37612191489535
_cell_formula_units_Z  4
loop_
  _symmetry_equiv_pos_site_id
 _symmetry_equiv_pos_as_xyz
 1  'x, y, z'
loop_
 _atom_site_type_symbol
 _atom_site_label
 _atom_site_symmetry_multiplicity
 _atom_site_fract_x
 _atom_site_fract_y
 _atom_site_fract_z
 _atom_site_fract_occupancy
 Nb  Nb1  1  0.00000  0.00000  0.00000  1
 Nb  Nb2  1  0.00000  0.00000  0.24803  1
 Nb  Nb3  1  0.66667  0.33333  0.50000  1
 Nb  Nb4  1  0.00000  0.00000  0.75197  1
 Se  Se1  1  0.66667  0.33333  0.93415  1
 Se  Se2  1  0.33333  0.66667  0.68583  1
 Se  Se3  1  0.33333  0.66667  0.31417  1
 Se  Se4  1  0.66667  0.33333  0.06585  1
 Se  Se5  1  0.33333  0.66667  0.81758  1
 Se  Se6  1  0.33333  0.66667  0.18242  1
 Se  Se7  1  0.00000  0.00000  0.43407  1
 Se  Se8  1  0.00000  0.00000  0.56593  1
