CIF file written using JARVIS-Tools package.
data_SrPuO4
_symmetry_space_group_name_H-M  'R-3m'
_cell_length_a       6.55852
_cell_length_b       6.55852
_cell_length_c       6.55853
_cell_angle_alpha    34.9392
_cell_angle_beta     34.9392
_cell_angle_gamma    34.9392

_symmetry_Int_Tables_number  166
_chemical_formula_structural  SrPuO4
_chemical_formula_sum  SrPuO4
_cell_volume  82.60977644046996
_cell_formula_units_Z  1
loop_
  _symmetry_equiv_pos_site_id
 _symmetry_equiv_pos_as_xyz
 1  'x, y, z'
loop_
 _atom_site_type_symbol
 _atom_site_label
 _atom_site_symmetry_multiplicity
 _atom_site_fract_x
 _atom_site_fract_y
 _atom_site_fract_z
 _atom_site_fract_occupancy
 O  O1  1  0.64143  0.64143  0.64143  1
 O  O2  1  0.35857  0.35857  0.35857  1
 O  O3  1  0.10710  0.10710  0.10710  1
 O  O4  1  0.89290  0.89290  0.89290  1
 Pu  Pu1  1  0.00000  0.00000  0.00000  1
 Sr  Sr1  1  0.50000  0.50000  0.50000  1
