CIF file written using JARVIS-Tools package.
data_Sr5Mg
_symmetry_space_group_name_H-M  'P-62m'
_cell_length_a       7.02317
_cell_length_b       7.02316
_cell_length_c       6.54933
_cell_angle_alpha    90
_cell_angle_beta     90
_cell_angle_gamma    120

_symmetry_Int_Tables_number  189
_chemical_formula_structural  Sr5Mg
_chemical_formula_sum  Sr5Mg
_cell_volume  279.76510554784016
_cell_formula_units_Z  1
loop_
  _symmetry_equiv_pos_site_id
 _symmetry_equiv_pos_as_xyz
 1  'x, y, z'
loop_
 _atom_site_type_symbol
 _atom_site_label
 _atom_site_symmetry_multiplicity
 _atom_site_fract_x
 _atom_site_fract_y
 _atom_site_fract_z
 _atom_site_fract_occupancy
 Mg  Mg1  1  0.00000  0.00000  0.50000  1
 Sr  Sr1  1  0.68105  0.00000  0.00000  1
 Sr  Sr2  1  0.00000  0.68105  0.00000  1
 Sr  Sr3  1  0.31895  0.31895  0.00000  1
 Sr  Sr4  1  0.33333  0.66667  0.50000  1
 Sr  Sr5  1  0.66667  0.33333  0.50000  1
