CIF file written using JARVIS-Tools package.
data_Li2CuO2
_symmetry_space_group_name_H-M  'Immm'
_cell_length_a       2.90058
_cell_length_b       3.66048
_cell_length_c       5.20198
_cell_angle_alpha    110.6
_cell_angle_beta     106.188
_cell_angle_gamma    90

_symmetry_Int_Tables_number  71
_chemical_formula_structural  Li2CuO2
_chemical_formula_sum  Li2CuO2
_cell_volume  49.354187311924726
_cell_formula_units_Z  1
loop_
  _symmetry_equiv_pos_site_id
 _symmetry_equiv_pos_as_xyz
 1  'x, y, z'
loop_
 _atom_site_type_symbol
 _atom_site_label
 _atom_site_symmetry_multiplicity
 _atom_site_fract_x
 _atom_site_fract_y
 _atom_site_fract_z
 _atom_site_fract_occupancy
 Cu  Cu1  1  0.00000  0.50000  0.00000  1
 Li  Li1  1  0.29023  0.79023  0.58046  1
 Li  Li2  1  0.70977  0.20977  0.41954  1
 O  O1  1  0.35552  0.35552  0.71104  1
 O  O2  1  0.64448  0.64448  0.28896  1
