CIF file written using JARVIS-Tools package.
data_KMnF3
_symmetry_space_group_name_H-M  'I4/mcm'
_cell_length_a       5.94555
_cell_length_b       5.94555
_cell_length_c       5.94555
_cell_angle_alpha    120.616
_cell_angle_beta     120.616
_cell_angle_gamma    88.9367

_symmetry_Int_Tables_number  140
_chemical_formula_structural  KMnF3
_chemical_formula_sum  K2Mn2F6
_cell_volume  147.20344369591263
_cell_formula_units_Z  2
loop_
  _symmetry_equiv_pos_site_id
 _symmetry_equiv_pos_as_xyz
 1  'x, y, z'
loop_
 _atom_site_type_symbol
 _atom_site_label
 _atom_site_symmetry_multiplicity
 _atom_site_fract_x
 _atom_site_fract_y
 _atom_site_fract_z
 _atom_site_fract_occupancy
 F  F1  1  0.79033  0.29033  0.08065  1
 F  F2  1  0.75000  0.75000  -0.00000  1
 F  F3  1  0.20967  0.70967  0.91935  1
 F  F4  1  0.29033  0.20967  0.50000  1
 F  F5  1  0.70967  0.79033  0.50000  1
 F  F6  1  0.25000  0.25000  -0.00000  1
 K  K1  1  0.75000  0.25000  0.50000  1
 K  K2  1  0.25000  0.75000  0.50000  1
 Mn  Mn1  1  0.00000  0.00000  0.00000  1
 Mn  Mn2  1  0.50000  0.50000  -0.00000  1
