CIF file written using JARVIS-Tools package.
data_YbLi3
_symmetry_space_group_name_H-M  'P6_3/mmc'
_cell_length_a       6.73194
_cell_length_b       6.73194
_cell_length_c       5.25229
_cell_angle_alpha    90
_cell_angle_beta     90
_cell_angle_gamma    120

_symmetry_Int_Tables_number  194
_chemical_formula_structural  YbLi3
_chemical_formula_sum  Yb2Li6
_cell_volume  206.1385671793196
_cell_formula_units_Z  2
loop_
  _symmetry_equiv_pos_site_id
 _symmetry_equiv_pos_as_xyz
 1  'x, y, z'
loop_
 _atom_site_type_symbol
 _atom_site_label
 _atom_site_symmetry_multiplicity
 _atom_site_fract_x
 _atom_site_fract_y
 _atom_site_fract_z
 _atom_site_fract_occupancy
 Li  Li1  1  0.14664  0.29328  0.25000  1
 Li  Li2  1  0.70672  0.85336  0.25000  1
 Li  Li3  1  0.14664  0.85336  0.25000  1
 Li  Li4  1  0.85336  0.70672  0.75000  1
 Li  Li5  1  0.29328  0.14664  0.75000  1
 Li  Li6  1  0.85336  0.14664  0.75000  1
 Yb  Yb1  1  0.33333  0.66667  0.75000  1
 Yb  Yb2  1  0.66667  0.33333  0.25000  1
