CIF file written using JARVIS-Tools package.
data_Rb2TaAgBr6
_symmetry_space_group_name_H-M  'Fm-3m'
_cell_length_a       7.67061
_cell_length_b       7.67061
_cell_length_c       7.67061
_cell_angle_alpha    60
_cell_angle_beta     60
_cell_angle_gamma    60.0001

_symmetry_Int_Tables_number  225
_chemical_formula_structural  Rb2TaAgBr6
_chemical_formula_sum  Rb2TaAgBr6
_cell_volume  319.1350852566415
_cell_formula_units_Z  1
loop_
  _symmetry_equiv_pos_site_id
 _symmetry_equiv_pos_as_xyz
 1  'x, y, z'
loop_
 _atom_site_type_symbol
 _atom_site_label
 _atom_site_symmetry_multiplicity
 _atom_site_fract_x
 _atom_site_fract_y
 _atom_site_fract_z
 _atom_site_fract_occupancy
 Ag  Ag1  1  0.00000  0.00000  0.00000  1
 Br  Br1  1  0.74199  0.25801  0.25801  1
 Br  Br2  1  0.25801  0.25801  0.74199  1
 Br  Br3  1  0.25801  0.74199  0.74199  1
 Br  Br4  1  0.25801  0.74199  0.25801  1
 Br  Br5  1  0.74199  0.25801  0.74199  1
 Br  Br6  1  0.74199  0.74199  0.25801  1
 Rb  Rb1  1  0.75000  0.75000  0.75000  1
 Rb  Rb2  1  0.25000  0.25000  0.25000  1
 Ta  Ta1  1  0.50000  0.50000  0.50000  1
