CIF file written using JARVIS-Tools package.
data_U2Mo
_symmetry_space_group_name_H-M  'I4/mmm'
_cell_length_a       3.44125
_cell_length_b       3.44124
_cell_length_c       5.44349
_cell_angle_alpha    108.427
_cell_angle_beta     108.426
_cell_angle_gamma    90

_symmetry_Int_Tables_number  139
_chemical_formula_structural  U2Mo
_chemical_formula_sum  U2Mo
_cell_volume  57.663784348050214
_cell_formula_units_Z  1
loop_
  _symmetry_equiv_pos_site_id
 _symmetry_equiv_pos_as_xyz
 1  'x, y, z'
loop_
 _atom_site_type_symbol
 _atom_site_label
 _atom_site_symmetry_multiplicity
 _atom_site_fract_x
 _atom_site_fract_y
 _atom_site_fract_z
 _atom_site_fract_occupancy
 Mo  Mo1  1  0.00000  0.00000  0.00000  1
 U  U1  1  0.32147  0.32147  0.64294  1
 U  U2  1  0.67853  0.67853  0.35706  1
