CIF file written using JARVIS-Tools package.
data_YAlFe
_symmetry_space_group_name_H-M  'Imma'
_cell_length_a       5.3033
_cell_length_b       5.3033
_cell_length_c       5.30331
_cell_angle_alpha    119.56
_cell_angle_beta     117.715
_cell_angle_gamma    92.3844

_symmetry_Int_Tables_number  74
_chemical_formula_structural  YAlFe
_chemical_formula_sum  Y2Al2Fe2
_cell_volume  107.50777155805733
_cell_formula_units_Z  2
loop_
  _symmetry_equiv_pos_site_id
 _symmetry_equiv_pos_as_xyz
 1  'x, y, z'
loop_
 _atom_site_type_symbol
 _atom_site_label
 _atom_site_symmetry_multiplicity
 _atom_site_fract_x
 _atom_site_fract_y
 _atom_site_fract_z
 _atom_site_fract_occupancy
 Al  Al1  1  0.50000  0.50000  0.00000  1
 Al  Al2  1  0.00000  0.50000  0.50000  1
 Fe  Fe1  1  0.50000  0.50000  0.50000  1
 Fe  Fe2  1  0.50000  0.00000  0.00000  1
 Y  Y1  1  0.13630  0.88630  0.25000  1
 Y  Y2  1  0.86370  0.11370  0.75000  1
