CIF file written using JARVIS-Tools package.
data_CeSe2
_symmetry_space_group_name_H-M  'Fd-3m'
_cell_length_a       5.89975
_cell_length_b       5.89975
_cell_length_c       5.89975
_cell_angle_alpha    60
_cell_angle_beta     60
_cell_angle_gamma    60

_symmetry_Int_Tables_number  227
_chemical_formula_structural  CeSe2
_chemical_formula_sum  Ce2Se4
_cell_volume  145.20630448717267
_cell_formula_units_Z  2
loop_
  _symmetry_equiv_pos_site_id
 _symmetry_equiv_pos_as_xyz
 1  'x, y, z'
loop_
 _atom_site_type_symbol
 _atom_site_label
 _atom_site_symmetry_multiplicity
 _atom_site_fract_x
 _atom_site_fract_y
 _atom_site_fract_z
 _atom_site_fract_occupancy
 Ce  Ce1  1  0.75000  0.75000  0.75000  1
 Ce  Ce2  1  0.00000  0.00000  0.00000  1
 Se  Se1  1  0.87500  0.37500  0.37500  1
 Se  Se2  1  0.37500  0.87500  0.37500  1
 Se  Se3  1  0.37500  0.37500  0.87500  1
 Se  Se4  1  0.37500  0.37500  0.37500  1
