CIF file written using JARVIS-Tools package.
data_HgB6
_symmetry_space_group_name_H-M  'Pm-3m'
_cell_length_a       4.2005
_cell_length_b       4.2005
_cell_length_c       4.2005
_cell_angle_alpha    90
_cell_angle_beta     90
_cell_angle_gamma    90

_symmetry_Int_Tables_number  221
_chemical_formula_structural  HgB6
_chemical_formula_sum  HgB6
_cell_volume  74.11441770750223
_cell_formula_units_Z  1
loop_
  _symmetry_equiv_pos_site_id
 _symmetry_equiv_pos_as_xyz
 1  'x, y, z'
loop_
 _atom_site_type_symbol
 _atom_site_label
 _atom_site_symmetry_multiplicity
 _atom_site_fract_x
 _atom_site_fract_y
 _atom_site_fract_z
 _atom_site_fract_occupancy
 B  B1  1  0.19907  0.50000  0.50000  1
 B  B2  1  0.50000  0.50000  0.80093  1
 B  B3  1  0.50000  0.50000  0.19907  1
 B  B4  1  0.50000  0.19907  0.50000  1
 B  B5  1  0.50000  0.80093  0.50000  1
 B  B6  1  0.80093  0.50000  0.50000  1
 Hg  Hg1  1  0.00000  0.00000  0.00000  1
