CIF file written using JARVIS-Tools package.
data_DyHoMn4
_symmetry_space_group_name_H-M  'F-43m'
_cell_length_a       5.07624
_cell_length_b       5.07623
_cell_length_c       5.07623
_cell_angle_alpha    90
_cell_angle_beta     60
_cell_angle_gamma    120

_symmetry_Int_Tables_number  216
_chemical_formula_structural  DyHoMn4
_chemical_formula_sum  DyHoMn4
_cell_volume  92.49319892423846
_cell_formula_units_Z  1
loop_
  _symmetry_equiv_pos_site_id
 _symmetry_equiv_pos_as_xyz
 1  'x, y, z'
loop_
 _atom_site_type_symbol
 _atom_site_label
 _atom_site_symmetry_multiplicity
 _atom_site_fract_x
 _atom_site_fract_y
 _atom_site_fract_z
 _atom_site_fract_occupancy
 Dy  Dy1  1  0.50000  0.75000  0.75000  1
 Ho  Ho1  1  0.00000  0.00000  0.00000  1
 Mn  Mn1  1  0.74994  0.37497  0.87509  1
 Mn  Mn2  1  0.25006  0.37497  0.37497  1
 Mn  Mn3  1  0.25006  0.87509  0.37497  1
 Mn  Mn4  1  0.74994  0.37497  0.37497  1
