CIF file written using JARVIS-Tools package.
data_NiPd
_symmetry_space_group_name_H-M  'R-3m'
_cell_length_a       4.5123
_cell_length_b       4.51229
_cell_length_c       4.5123
_cell_angle_alpha    34.7719
_cell_angle_beta     34.7719
_cell_angle_gamma    34.7719

_symmetry_Int_Tables_number  166
_chemical_formula_structural  NiPd
_chemical_formula_sum  NiPd
_cell_volume  26.671025569052837
_cell_formula_units_Z  1
loop_
  _symmetry_equiv_pos_site_id
 _symmetry_equiv_pos_as_xyz
 1  'x, y, z'
loop_
 _atom_site_type_symbol
 _atom_site_label
 _atom_site_symmetry_multiplicity
 _atom_site_fract_x
 _atom_site_fract_y
 _atom_site_fract_z
 _atom_site_fract_occupancy
 Ni  Ni1  1  0.00000  0.00000  0.00000  1
 Pd  Pd1  1  0.50000  0.50000  0.50000  1
