CIF file written using JARVIS-Tools package.
data_BaCuS2
_symmetry_space_group_name_H-M  'P4/nmm'
_cell_length_a       4.49234
_cell_length_b       4.49234
_cell_length_c       9.07217
_cell_angle_alpha    90
_cell_angle_beta     90
_cell_angle_gamma    90

_symmetry_Int_Tables_number  129
_chemical_formula_structural  BaCuS2
_chemical_formula_sum  Ba2Cu2S4
_cell_volume  183.08648022623976
_cell_formula_units_Z  2
loop_
  _symmetry_equiv_pos_site_id
 _symmetry_equiv_pos_as_xyz
 1  'x, y, z'
loop_
 _atom_site_type_symbol
 _atom_site_label
 _atom_site_symmetry_multiplicity
 _atom_site_fract_x
 _atom_site_fract_y
 _atom_site_fract_z
 _atom_site_fract_occupancy
 Ba  Ba1  1  0.00000  0.50000  0.19708  1
 Ba  Ba2  1  0.50000  0.00000  0.80292  1
 Cu  Cu1  1  0.50000  0.00000  0.40347  1
 Cu  Cu2  1  0.00000  0.50000  0.59653  1
 S  S1  1  0.50000  0.50000  0.50000  1
 S  S2  1  0.00000  0.00000  0.50000  1
 S  S3  1  0.50000  0.00000  0.14782  1
 S  S4  1  0.00000  0.50000  0.85218  1
