data_image0
_chemical_formula_structural       C6H24Li4N12O14S2
_chemical_formula_sum              "C6 H24 Li4 N12 O14 S2"
_cell_length_a       9.43591
_cell_length_b       9.43591
_cell_length_c       7.19775
_cell_angle_alpha    69.7011
_cell_angle_beta     110.299
_cell_angle_gamma    124.172

_space_group_name_H-M_alt    "P 1"
_space_group_IT_number       1

loop_
  _space_group_symop_operation_xyz
  'x, y, z'

loop_
  _atom_site_type_symbol
  _atom_site_label
  _atom_site_symmetry_multiplicity
  _atom_site_fract_x
  _atom_site_fract_y
  _atom_site_fract_z
  _atom_site_occupancy
  C   C1        1.0  0.03970  0.03970  0.25000  1.0000
  C   C2        1.0  0.96000  0.96000  0.75000  1.0000
  C   C3        1.0  0.41300  0.92000  0.22500  1.0000
  C   C4        1.0  0.92000  0.41300  0.27500  1.0000
  C   C5        1.0  0.58700  0.07990  0.77500  1.0000
  C   C6        1.0  0.07990  0.58700  0.72500  1.0000
  H   H1        1.0  0.79900  0.90700  0.32100  1.0000
  H   H2        1.0  0.90700  0.79900  0.17900  1.0000
  H   H3        1.0  0.20100  0.09290  0.67900  1.0000
  H   H4        1.0  0.09290  0.20100  0.82100  1.0000
  H   H5        1.0  0.24500  0.87100  0.95900  1.0000
  H   H6        1.0  0.87100  0.24500  0.54100  1.0000
  H   H7        1.0  0.75500  0.12900  0.04100  1.0000
  H   H8        1.0  0.12900  0.75500  0.45900  1.0000
  H   H9        1.0  0.54600  0.78600  0.38300  1.0000
  H   H10       1.0  0.78600  0.54600  0.11700  1.0000
  H   H11       1.0  0.45400  0.21400  0.61700  1.0000
  H   H12       1.0  0.21400  0.45400  0.88300  1.0000
  H   H13       1.0  0.34800  0.74100  0.06610  1.0000
  H   H14       1.0  0.74100  0.34800  0.43400  1.0000
  H   H15       1.0  0.65200  0.25900  0.93400  1.0000
  H   H16       1.0  0.25900  0.65200  0.56600  1.0000
  H   H17       1.0  0.57600  0.93900  0.49500  1.0000
  H   H18       1.0  0.93900  0.57600  0.00493  1.0000
  H   H19       1.0  0.42400  0.06050  0.50500  1.0000
  H   H20       1.0  0.06050  0.42400  0.99500  1.0000
  H   H21       1.0  0.92400  0.13500  0.31400  1.0000
  H   H22       1.0  0.13500  0.92400  0.18600  1.0000
  H   H23       1.0  0.07620  0.86500  0.68600  1.0000
  H   H24       1.0  0.86500  0.07620  0.81400  1.0000
  Li  Li1       1.0  0.38400  0.23400  0.18100  1.0000
  Li  Li2       1.0  0.23400  0.38400  0.31900  1.0000
  Li  Li3       1.0  0.61600  0.76600  0.81900  1.0000
  Li  Li4       1.0  0.76600  0.61600  0.68100  1.0000
  N   N1        1.0  0.89600  0.02880  0.26800  1.0000
  N   N2        1.0  0.02880  0.89600  0.23200  1.0000
  N   N3        1.0  0.10400  0.97100  0.73200  1.0000
  N   N4        1.0  0.97100  0.10400  0.76800  1.0000
  N   N5        1.0  0.53700  0.89300  0.36600  1.0000
  N   N6        1.0  0.89300  0.53700  0.13400  1.0000
  N   N7        1.0  0.46300  0.10700  0.63400  1.0000
  N   N8        1.0  0.10700  0.46300  0.86600  1.0000
  N   N9        1.0  0.32300  0.83100  0.07420  1.0000
  N   N10       1.0  0.83100  0.32300  0.42600  1.0000
  N   N11       1.0  0.67700  0.16900  0.92600  1.0000
  N   N12       1.0  0.16900  0.67700  0.57400  1.0000
  O   O1        1.0  0.18200  0.18200  0.25000  1.0000
  O   O2        1.0  0.81800  0.81800  0.75000  1.0000
  O   O3        1.0  0.38000  0.02990  0.23600  1.0000
  O   O4        1.0  0.02990  0.38000  0.26400  1.0000
  O   O5        1.0  0.62000  0.97000  0.76400  1.0000
  O   O6        1.0  0.97000  0.62000  0.73600  1.0000
  O   O7        1.0  0.56800  0.40900  0.32600  1.0000
  O   O8        1.0  0.40900  0.56800  0.17400  1.0000
  O   O9        1.0  0.43200  0.59100  0.67400  1.0000
  O   O10       1.0  0.59100  0.43200  0.82600  1.0000
  O   O11       1.0  0.68200  0.67800  0.08490  1.0000
  O   O12       1.0  0.67800  0.68200  0.41500  1.0000
  O   O13       1.0  0.31800  0.32200  0.91500  1.0000
  O   O14       1.0  0.32200  0.31800  0.58500  1.0000
  S   S1        1.0  0.58200  0.58200  0.25000  1.0000
  S   S2        1.0  0.41800  0.41800  0.75000  1.0000
