CIF file written using JARVIS-Tools package.
data_Mg5Ag
_symmetry_space_group_name_H-M  'P-62m'
_cell_length_a       5.39275
_cell_length_b       5.39275
_cell_length_c       4.94429
_cell_angle_alpha    90
_cell_angle_beta     90
_cell_angle_gamma    120

_symmetry_Int_Tables_number  189
_chemical_formula_structural  Mg5Ag
_chemical_formula_sum  Mg5Ag
_cell_volume  124.5245971660736
_cell_formula_units_Z  1
loop_
  _symmetry_equiv_pos_site_id
 _symmetry_equiv_pos_as_xyz
 1  'x, y, z'
loop_
 _atom_site_type_symbol
 _atom_site_label
 _atom_site_symmetry_multiplicity
 _atom_site_fract_x
 _atom_site_fract_y
 _atom_site_fract_z
 _atom_site_fract_occupancy
 Ag  Ag1  1  0.00000  0.00000  0.00000  1
 Mg  Mg1  1  0.66667  0.33333  0.00000  1
 Mg  Mg2  1  0.32150  -0.00000  0.50000  1
 Mg  Mg3  1  0.67850  0.67850  0.50000  1
 Mg  Mg4  1  -0.00000  0.32150  0.50000  1
 Mg  Mg5  1  0.33333  0.66667  0.00000  1
