CIF file written using JARVIS-Tools package.
data_Ca2Mg
_symmetry_space_group_name_H-M  'P-6m2'
_cell_length_a       3.77747
_cell_length_b       3.77746
_cell_length_c       17.1752
_cell_angle_alpha    90
_cell_angle_beta     90
_cell_angle_gamma    120

_symmetry_Int_Tables_number  187
_chemical_formula_structural  Ca2Mg
_chemical_formula_sum  Ca4Mg2
_cell_volume  212.24317031587265
_cell_formula_units_Z  2
loop_
  _symmetry_equiv_pos_site_id
 _symmetry_equiv_pos_as_xyz
 1  'x, y, z'
loop_
 _atom_site_type_symbol
 _atom_site_label
 _atom_site_symmetry_multiplicity
 _atom_site_fract_x
 _atom_site_fract_y
 _atom_site_fract_z
 _atom_site_fract_occupancy
 Ca  Ca1  1  0.66667  0.33333  0.00000  1
 Ca  Ca2  1  0.00000  0.00000  0.81441  1
 Ca  Ca3  1  0.00000  0.00000  0.50000  1
 Ca  Ca4  1  0.00000  0.00000  0.18559  1
 Mg  Mg1  1  0.66667  0.33333  0.65747  1
 Mg  Mg2  1  0.66667  0.33333  0.34253  1
