CIF file written using JARVIS-Tools package.
data_DySiNi4
_symmetry_space_group_name_H-M  'Cmmm'
_cell_length_a       3.96292
_cell_length_b       4.80051
_cell_length_c       4.80051
_cell_angle_alpha    116.28
_cell_angle_beta     90
_cell_angle_gamma    90

_symmetry_Int_Tables_number  65
_chemical_formula_structural  DySiNi4
_chemical_formula_sum  DySiNi4
_cell_volume  81.8860178359873
_cell_formula_units_Z  1
loop_
  _symmetry_equiv_pos_site_id
 _symmetry_equiv_pos_as_xyz
 1  'x, y, z'
loop_
 _atom_site_type_symbol
 _atom_site_label
 _atom_site_symmetry_multiplicity
 _atom_site_fract_x
 _atom_site_fract_y
 _atom_site_fract_z
 _atom_site_fract_occupancy
 Dy  Dy1  1  0.00000  0.00000  0.00000  1
 Ni  Ni1  1  0.00000  0.34114  0.65886  1
 Ni  Ni2  1  0.00000  0.65886  0.34114  1
 Ni  Ni3  1  0.50000  0.00000  0.50000  1
 Ni  Ni4  1  0.50000  0.50000  0.00000  1
 Si  Si1  1  0.50000  0.50000  0.50000  1
