CIF file written using JARVIS-Tools package.
data_Cr3S4
_symmetry_space_group_name_H-M  'C2/m'
_cell_length_a       3.45589
_cell_length_b       6.04373
_cell_length_c       6.50558
_cell_angle_alpha    116.045
_cell_angle_beta     105.403
_cell_angle_gamma    90

_symmetry_Int_Tables_number  12
_chemical_formula_structural  Cr3S4
_chemical_formula_sum  Cr3S4
_cell_volume  116.62319007141379
_cell_formula_units_Z  1
loop_
  _symmetry_equiv_pos_site_id
 _symmetry_equiv_pos_as_xyz
 1  'x, y, z'
loop_
 _atom_site_type_symbol
 _atom_site_label
 _atom_site_symmetry_multiplicity
 _atom_site_fract_x
 _atom_site_fract_y
 _atom_site_fract_z
 _atom_site_fract_occupancy
 Cr  Cr1  1  0.00000  0.00000  0.00000  1
 Cr  Cr2  1  0.73560  0.71878  0.47121  1
 Cr  Cr3  1  0.26440  0.28122  0.52879  1
 S  S1  1  0.63311  0.97813  0.26621  1
 S  S2  1  0.36689  0.02187  0.73379  1
 S  S3  1  0.12318  0.44798  0.24637  1
 S  S4  1  0.87682  0.55202  0.75363  1
