CIF file written using JARVIS-Tools package.
data_YbBr2
_symmetry_space_group_name_H-M  'Pnnm'
_cell_length_a       4.24831
_cell_length_b       6.45661
_cell_length_c       6.84873
_cell_angle_alpha    90
_cell_angle_beta     90
_cell_angle_gamma    90

_symmetry_Int_Tables_number  58
_chemical_formula_structural  YbBr2
_chemical_formula_sum  Yb2Br4
_cell_volume  187.8586883343859
_cell_formula_units_Z  2
loop_
  _symmetry_equiv_pos_site_id
 _symmetry_equiv_pos_as_xyz
 1  'x, y, z'
loop_
 _atom_site_type_symbol
 _atom_site_label
 _atom_site_symmetry_multiplicity
 _atom_site_fract_x
 _atom_site_fract_y
 _atom_site_fract_z
 _atom_site_fract_occupancy
 Br  Br1  1  0.50000  0.25444  0.34326  1
 Br  Br2  1  0.50000  0.74556  0.65674  1
 Br  Br3  1  0.00000  0.24556  0.84326  1
 Br  Br4  1  0.00000  0.75444  0.15674  1
 Yb  Yb1  1  0.00000  0.50000  0.50000  1
 Yb  Yb2  1  0.50000  0.00000  0.00000  1
