CIF file written using JARVIS-Tools package.
data_CuBiSe2
_symmetry_space_group_name_H-M  'R-3m'
_cell_length_a       6.81525
_cell_length_b       6.81525
_cell_length_c       6.81525
_cell_angle_alpha    34.6617
_cell_angle_beta     34.6617
_cell_angle_gamma    34.6617

_symmetry_Int_Tables_number  166
_chemical_formula_structural  CuBiSe2
_chemical_formula_sum  CuBiSe2
_cell_volume  91.3695001606971
_cell_formula_units_Z  1
loop_
  _symmetry_equiv_pos_site_id
 _symmetry_equiv_pos_as_xyz
 1  'x, y, z'
loop_
 _atom_site_type_symbol
 _atom_site_label
 _atom_site_symmetry_multiplicity
 _atom_site_fract_x
 _atom_site_fract_y
 _atom_site_fract_z
 _atom_site_fract_occupancy
 Bi  Bi1  1  0.00000  0.00000  0.00000  1
 Cu  Cu1  1  0.50000  0.50000  0.50000  1
 Se  Se1  1  0.23755  0.23755  0.23755  1
 Se  Se2  1  0.76245  0.76245  0.76245  1
