CIF file written using JARVIS-Tools package.
data_Te2Mo2WSe2S2
_symmetry_space_group_name_H-M  'Cm'
_cell_length_a       3.3533
_cell_length_b       3.35337
_cell_length_c       20.1304
_cell_angle_alpha    85.1882
_cell_angle_beta     90
_cell_angle_gamma    119.999

_symmetry_Int_Tables_number  8
_chemical_formula_structural  Te2Mo2WSe2S2
_chemical_formula_sum  Te2Mo2WSe2S2
_cell_volume  195.11609833529653
_cell_formula_units_Z  1
loop_
  _symmetry_equiv_pos_site_id
 _symmetry_equiv_pos_as_xyz
 1  'x, y, z'
loop_
 _atom_site_type_symbol
 _atom_site_label
 _atom_site_symmetry_multiplicity
 _atom_site_fract_x
 _atom_site_fract_y
 _atom_site_fract_z
 _atom_site_fract_occupancy
 Mo  Mo1  1  0.44539  0.89078  0.00977  1
 Mo  Mo2  1  0.66297  0.32594  0.35708  1
 S  S1  1  0.58383  0.16765  0.59808  1
 S  S2  1  0.53276  0.06552  0.75009  1
 Se  Se1  1  0.30173  0.60347  0.44017  1
 Se  Se2  1  0.35753  0.71505  0.27399  1
 Te  Te1  1  0.81056  0.62111  -0.08502  1
 Te  Te2  1  0.74688  0.49376  0.10456  1
 W  W1  1  0.22495  0.44991  0.67411  1
