CIF file written using JARVIS-Tools package.
data_UC2
_symmetry_space_group_name_H-M  'I4/mmm'
_cell_length_a       3.52315
_cell_length_b       3.52315
_cell_length_c       3.89447
_cell_angle_alpha    116.893
_cell_angle_beta     116.893
_cell_angle_gamma    90

_symmetry_Int_Tables_number  139
_chemical_formula_structural  UC2
_chemical_formula_sum  UC2
_cell_volume  37.156200087799434
_cell_formula_units_Z  1
loop_
  _symmetry_equiv_pos_site_id
 _symmetry_equiv_pos_as_xyz
 1  'x, y, z'
loop_
 _atom_site_type_symbol
 _atom_site_label
 _atom_site_symmetry_multiplicity
 _atom_site_fract_x
 _atom_site_fract_y
 _atom_site_fract_z
 _atom_site_fract_occupancy
 C  C1  1  0.61444  0.61444  0.22888  1
 C  C2  1  0.38556  0.38556  0.77112  1
 U  U1  1  0.00000  0.00000  0.00000  1
