CIF file written using JARVIS-Tools package.
data_TlSnI3
_symmetry_space_group_name_H-M  'Cmcm'
_cell_length_a       7.78743
_cell_length_b       7.78743
_cell_length_c       11.8471
_cell_angle_alpha    90
_cell_angle_beta     90
_cell_angle_gamma    145.674

_symmetry_Int_Tables_number  63
_chemical_formula_structural  TlSnI3
_chemical_formula_sum  Tl2Sn2I6
_cell_volume  405.1320277018103
_cell_formula_units_Z  2
loop_
  _symmetry_equiv_pos_site_id
 _symmetry_equiv_pos_as_xyz
 1  'x, y, z'
loop_
 _atom_site_type_symbol
 _atom_site_label
 _atom_site_symmetry_multiplicity
 _atom_site_fract_x
 _atom_site_fract_y
 _atom_site_fract_z
 _atom_site_fract_occupancy
 I  I1  1  0.64348  0.35652  0.05656  1
 I  I2  1  0.35652  0.64348  0.94344  1
 I  I3  1  0.35652  0.64348  0.55656  1
 I  I4  1  0.64348  0.35652  0.44344  1
 I  I5  1  0.92537  0.07463  0.25000  1
 I  I6  1  0.07463  0.92537  0.75000  1
 Sn  Sn1  1  0.00000  0.00000  0.00000  1
 Sn  Sn2  1  0.00000  0.00000  0.50000  1
 Tl  Tl1  1  0.24905  0.75095  0.25000  1
 Tl  Tl2  1  0.75095  0.24905  0.75000  1
