CIF file written using JARVIS-Tools package.
data_V6GeOs
_symmetry_space_group_name_H-M  'Pm-3'
_cell_length_a       4.77099
_cell_length_b       4.77099
_cell_length_c       4.77099
_cell_angle_alpha    90
_cell_angle_beta     90
_cell_angle_gamma    90

_symmetry_Int_Tables_number  200
_chemical_formula_structural  V6GeOs
_chemical_formula_sum  V6GeOs
_cell_volume  108.59919720669899
_cell_formula_units_Z  1
loop_
  _symmetry_equiv_pos_site_id
 _symmetry_equiv_pos_as_xyz
 1  'x, y, z'
loop_
 _atom_site_type_symbol
 _atom_site_label
 _atom_site_symmetry_multiplicity
 _atom_site_fract_x
 _atom_site_fract_y
 _atom_site_fract_z
 _atom_site_fract_occupancy
 Ge  Ge1  1  0.00000  0.00000  0.00000  1
 Os  Os1  1  0.50000  0.50000  0.50000  1
 V  V1  1  0.00000  0.50000  0.74720  1
 V  V2  1  0.50000  0.25280  0.00000  1
 V  V3  1  0.74720  0.00000  0.50000  1
 V  V4  1  0.00000  0.50000  0.25280  1
 V  V5  1  0.50000  0.74720  0.00000  1
 V  V6  1  0.25280  0.00000  0.50000  1
