CIF file written using JARVIS-Tools package.
data_Pr2Mg
_symmetry_space_group_name_H-M  'Cmcm'
_cell_length_a       8.99024
_cell_length_b       8.99025
_cell_length_c       5.66325
_cell_angle_alpha    90
_cell_angle_beta     90
_cell_angle_gamma    155.273

_symmetry_Int_Tables_number  63
_chemical_formula_structural  Pr2Mg
_chemical_formula_sum  Pr4Mg2
_cell_volume  191.46948019451912
_cell_formula_units_Z  2
loop_
  _symmetry_equiv_pos_site_id
 _symmetry_equiv_pos_as_xyz
 1  'x, y, z'
loop_
 _atom_site_type_symbol
 _atom_site_label
 _atom_site_symmetry_multiplicity
 _atom_site_fract_x
 _atom_site_fract_y
 _atom_site_fract_z
 _atom_site_fract_occupancy
 Mg  Mg1  1  0.43059  0.56941  0.25000  1
 Mg  Mg2  1  0.56941  0.43059  0.75000  1
 Pr  Pr1  1  0.08680  0.91320  0.25000  1
 Pr  Pr2  1  0.77161  0.22839  0.25000  1
 Pr  Pr3  1  0.91320  0.08680  0.75000  1
 Pr  Pr4  1  0.22839  0.77161  0.75000  1
