CIF file written using JARVIS-Tools package.
data_NdScGe
_symmetry_space_group_name_H-M  'I4/mmm'
_cell_length_a       4.30589
_cell_length_b       4.3059
_cell_length_c       8.51637
_cell_angle_alpha    104.643
_cell_angle_beta     104.643
_cell_angle_gamma    90

_symmetry_Int_Tables_number  139
_chemical_formula_structural  NdScGe
_chemical_formula_sum  Nd2Sc2Ge2
_cell_volume  147.46382935085285
_cell_formula_units_Z  2
loop_
  _symmetry_equiv_pos_site_id
 _symmetry_equiv_pos_as_xyz
 1  'x, y, z'
loop_
 _atom_site_type_symbol
 _atom_site_label
 _atom_site_symmetry_multiplicity
 _atom_site_fract_x
 _atom_site_fract_y
 _atom_site_fract_z
 _atom_site_fract_occupancy
 Ge  Ge1  1  0.12346  0.12346  0.24692  1
 Ge  Ge2  1  0.87654  0.87654  0.75308  1
 Nd  Nd1  1  0.67653  0.67653  0.35306  1
 Nd  Nd2  1  0.32347  0.32347  0.64694  1
 Sc  Sc1  1  -0.00000  0.50000  0.00000  1
 Sc  Sc2  1  0.50000  -0.00000  0.00000  1
