CIF file written using JARVIS-Tools package.
data_K2InAsI6
_symmetry_space_group_name_H-M  'Fm-3m'
_cell_length_a       8.47411
_cell_length_b       8.47411
_cell_length_c       8.47411
_cell_angle_alpha    60
_cell_angle_beta     60
_cell_angle_gamma    60

_symmetry_Int_Tables_number  225
_chemical_formula_structural  K2InAsI6
_chemical_formula_sum  K2InAsI6
_cell_volume  430.29600416838105
_cell_formula_units_Z  1
loop_
  _symmetry_equiv_pos_site_id
 _symmetry_equiv_pos_as_xyz
 1  'x, y, z'
loop_
 _atom_site_type_symbol
 _atom_site_label
 _atom_site_symmetry_multiplicity
 _atom_site_fract_x
 _atom_site_fract_y
 _atom_site_fract_z
 _atom_site_fract_occupancy
 As  As1  1  0.00000  0.00000  0.00000  1
 I  I1  1  0.75920  0.24080  0.24080  1
 I  I2  1  0.24080  0.24080  0.75920  1
 I  I3  1  0.24080  0.75920  0.75920  1
 I  I4  1  0.24080  0.75920  0.24080  1
 I  I5  1  0.75920  0.24080  0.75920  1
 I  I6  1  0.75920  0.75920  0.24080  1
 In  In1  1  0.50000  0.50000  0.50000  1
 K  K1  1  0.75000  0.75000  0.75000  1
 K  K2  1  0.25000  0.25000  0.25000  1
