CIF file written using JARVIS-Tools package.
data_Pr3Sc
_symmetry_space_group_name_H-M  'P6_3/mmc'
_cell_length_a       7.22891
_cell_length_b       7.22891
_cell_length_c       5.7715
_cell_angle_alpha    90
_cell_angle_beta     90
_cell_angle_gamma    120

_symmetry_Int_Tables_number  194
_chemical_formula_structural  Pr3Sc
_chemical_formula_sum  Pr6Sc2
_cell_volume  261.1948121780662
_cell_formula_units_Z  2
loop_
  _symmetry_equiv_pos_site_id
 _symmetry_equiv_pos_as_xyz
 1  'x, y, z'
loop_
 _atom_site_type_symbol
 _atom_site_label
 _atom_site_symmetry_multiplicity
 _atom_site_fract_x
 _atom_site_fract_y
 _atom_site_fract_z
 _atom_site_fract_occupancy
 Pr  Pr1  1  0.17079  0.34157  0.25000  1
 Pr  Pr2  1  0.17079  0.82921  0.25000  1
 Pr  Pr3  1  0.65843  0.82921  0.25000  1
 Pr  Pr4  1  0.82921  0.65843  0.75000  1
 Pr  Pr5  1  0.34157  0.17079  0.75000  1
 Pr  Pr6  1  0.82921  0.17079  0.75000  1
 Sc  Sc1  1  0.33333  0.66667  0.75000  1
 Sc  Sc2  1  0.66667  0.33333  0.25000  1
