CIF file written using JARVIS-Tools package.
data_TaGe2
_symmetry_space_group_name_H-M  'P6_222'
_cell_length_a       5.02322
_cell_length_b       5.02322
_cell_length_c       6.80699
_cell_angle_alpha    90
_cell_angle_beta     90
_cell_angle_gamma    120

_symmetry_Int_Tables_number  180
_chemical_formula_structural  TaGe2
_chemical_formula_sum  Ta3Ge6
_cell_volume  148.74748814224296
_cell_formula_units_Z  3
loop_
  _symmetry_equiv_pos_site_id
 _symmetry_equiv_pos_as_xyz
 1  'x, y, z'
loop_
 _atom_site_type_symbol
 _atom_site_label
 _atom_site_symmetry_multiplicity
 _atom_site_fract_x
 _atom_site_fract_y
 _atom_site_fract_z
 _atom_site_fract_occupancy
 Ge  Ge1  1  0.16494  0.83506  0.33333  1
 Ge  Ge2  1  0.83506  0.67013  0.00000  1
 Ge  Ge3  1  0.32987  0.16494  0.66667  1
 Ge  Ge4  1  0.67013  0.83506  0.66667  1
 Ge  Ge5  1  0.16494  0.32987  0.00000  1
 Ge  Ge6  1  0.83506  0.16494  0.33333  1
 Ta  Ta1  1  0.50000  0.50000  0.33333  1
 Ta  Ta2  1  0.50000  0.00000  0.00000  1
 Ta  Ta3  1  0.00000  0.50000  0.66667  1
