CIF file written using JARVIS-Tools package.
data_NaCd2In
_symmetry_space_group_name_H-M  'Fm-3m'
_cell_length_a       5.16933
_cell_length_b       5.16933
_cell_length_c       5.16933
_cell_angle_alpha    60.0001
_cell_angle_beta     60
_cell_angle_gamma    60

_symmetry_Int_Tables_number  225
_chemical_formula_structural  NaCd2In
_chemical_formula_sum  NaCd2In
_cell_volume  97.67580587004159
_cell_formula_units_Z  1
loop_
  _symmetry_equiv_pos_site_id
 _symmetry_equiv_pos_as_xyz
 1  'x, y, z'
loop_
 _atom_site_type_symbol
 _atom_site_label
 _atom_site_symmetry_multiplicity
 _atom_site_fract_x
 _atom_site_fract_y
 _atom_site_fract_z
 _atom_site_fract_occupancy
 Cd  Cd1  1  0.75000  0.75000  0.75000  1
 Cd  Cd2  1  0.25000  0.25000  0.25000  1
 In  In1  1  0.50000  0.50000  0.50000  1
 Na  Na1  1  0.00000  0.00000  0.00000  1
