CIF file written using JARVIS-Tools package.
data_Te2Mo2WSe4
_symmetry_space_group_name_H-M  'P-6m2'
_cell_length_a       3.40666
_cell_length_b       3.40666
_cell_length_c       29.9187
_cell_angle_alpha    90
_cell_angle_beta     90
_cell_angle_gamma    120

_symmetry_Int_Tables_number  187
_chemical_formula_structural  Te2Mo2WSe4
_chemical_formula_sum  Te2Mo2WSe4
_cell_volume  300.6984638129105
_cell_formula_units_Z  1
loop_
  _symmetry_equiv_pos_site_id
 _symmetry_equiv_pos_as_xyz
 1  'x, y, z'
loop_
 _atom_site_type_symbol
 _atom_site_label
 _atom_site_symmetry_multiplicity
 _atom_site_fract_x
 _atom_site_fract_y
 _atom_site_fract_z
 _atom_site_fract_occupancy
 Mo  Mo1  1  0.33331  0.66663  0.11651  1
 Mo  Mo2  1  0.33331  0.66663  0.57745  1
 Se  Se1  1  0.66664  0.33329  0.06153  1
 Se  Se2  1  0.66665  0.33330  0.52236  1
 Se  Se3  1  0.66665  0.33330  0.17161  1
 Se  Se4  1  0.66664  0.33329  0.63244  1
 Te  Te1  1  0.33335  0.66670  0.40997  1
 Te  Te2  1  0.33335  0.66670  0.28400  1
 W  W1  1  0.66668  0.33337  0.34698  1
