CIF file written using JARVIS-Tools package.
data_Na3YCl6
_symmetry_space_group_name_H-M  'Fm-3m'
_cell_length_a       7.40804
_cell_length_b       7.40803
_cell_length_c       7.40803
_cell_angle_alpha    60
_cell_angle_beta     60
_cell_angle_gamma    59.9999

_symmetry_Int_Tables_number  225
_chemical_formula_structural  Na3YCl6
_chemical_formula_sum  Na3YCl6
_cell_volume  287.4709804715364
_cell_formula_units_Z  1
loop_
  _symmetry_equiv_pos_site_id
 _symmetry_equiv_pos_as_xyz
 1  'x, y, z'
loop_
 _atom_site_type_symbol
 _atom_site_label
 _atom_site_symmetry_multiplicity
 _atom_site_fract_x
 _atom_site_fract_y
 _atom_site_fract_z
 _atom_site_fract_occupancy
 Cl  Cl1  1  0.75173  0.24827  0.24827  1
 Cl  Cl2  1  0.24827  0.24827  0.75173  1
 Cl  Cl3  1  0.24827  0.75173  0.75173  1
 Cl  Cl4  1  0.24827  0.75173  0.24827  1
 Cl  Cl5  1  0.75173  0.24827  0.75173  1
 Cl  Cl6  1  0.75173  0.75173  0.24827  1
 Na  Na1  1  0.75000  0.75000  0.75000  1
 Na  Na2  1  0.25000  0.25000  0.25000  1
 Na  Na3  1  0.50000  0.50000  0.50000  1
 Y  Y1  1  0.00000  0.00000  0.00000  1
