CIF file written using JARVIS-Tools package.
data_CeMnSi2Pd
_symmetry_space_group_name_H-M  'I-4m2'
_cell_length_a       5.7626
_cell_length_b       5.7626
_cell_length_c       5.76261
_cell_angle_alpha    138.301
_cell_angle_beta     138.301
_cell_angle_gamma    60.4423

_symmetry_Int_Tables_number  119
_chemical_formula_structural  CeMnSi2Pd
_chemical_formula_sum  CeMnSi2Pd
_cell_volume  83.78479801476185
_cell_formula_units_Z  1
loop_
  _symmetry_equiv_pos_site_id
 _symmetry_equiv_pos_as_xyz
 1  'x, y, z'
loop_
 _atom_site_type_symbol
 _atom_site_label
 _atom_site_symmetry_multiplicity
 _atom_site_fract_x
 _atom_site_fract_y
 _atom_site_fract_z
 _atom_site_fract_occupancy
 Ce  Ce1  1  0.00000  0.00000  0.00000  1
 Mn  Mn1  1  0.75000  0.25000  0.50000  1
 Pd  Pd1  1  0.25000  0.75000  0.50000  1
 Si  Si1  1  0.62503  0.62503  1.00000  1
 Si  Si2  1  0.37497  0.37497  0.00000  1
