CIF file written using JARVIS-Tools package.
data_MnGaO3
_symmetry_space_group_name_H-M  'P6_3/mmc'
_cell_length_a       3.22392
_cell_length_b       3.22392
_cell_length_c       11.8089
_cell_angle_alpha    90
_cell_angle_beta     90
_cell_angle_gamma    120

_symmetry_Int_Tables_number  194
_chemical_formula_structural  MnGaO3
_chemical_formula_sum  Mn2Ga2O6
_cell_volume  106.29434034270288
_cell_formula_units_Z  2
loop_
  _symmetry_equiv_pos_site_id
 _symmetry_equiv_pos_as_xyz
 1  'x, y, z'
loop_
 _atom_site_type_symbol
 _atom_site_label
 _atom_site_symmetry_multiplicity
 _atom_site_fract_x
 _atom_site_fract_y
 _atom_site_fract_z
 _atom_site_fract_occupancy
 Ga  Ga1  1  0.33333  0.66667  0.75000  1
 Ga  Ga2  1  0.66667  0.33333  0.25000  1
 Mn  Mn1  1  0.00000  0.00000  0.00000  1
 Mn  Mn2  1  0.00000  0.00000  0.50000  1
 O  O1  1  0.00000  0.00000  0.25000  1
 O  O2  1  0.00000  0.00000  0.75000  1
 O  O3  1  0.33333  0.66667  0.57890  1
 O  O4  1  0.33333  0.66667  0.92110  1
 O  O5  1  0.66667  0.33333  0.42110  1
 O  O6  1  0.66667  0.33333  0.07890  1
