CIF file written using JARVIS-Tools package.
data_PtSeS
_symmetry_space_group_name_H-M  'P3m1'
_cell_length_a       3.69774
_cell_length_b       3.69773
_cell_length_c       5.06481
_cell_angle_alpha    90
_cell_angle_beta     90
_cell_angle_gamma    120

_symmetry_Int_Tables_number  156
_chemical_formula_structural  PtSeS
_chemical_formula_sum  PtSeS
_cell_volume  59.97435620295579
_cell_formula_units_Z  1
loop_
  _symmetry_equiv_pos_site_id
 _symmetry_equiv_pos_as_xyz
 1  'x, y, z'
loop_
 _atom_site_type_symbol
 _atom_site_label
 _atom_site_symmetry_multiplicity
 _atom_site_fract_x
 _atom_site_fract_y
 _atom_site_fract_z
 _atom_site_fract_occupancy
 Pt  Pt1  1  0.33333  0.66667  0.00853  1
 S  S1  1  0.66667  0.33333  0.24752  1
 Se  Se1  1  0.00000  0.00000  0.74395  1
