CIF file written using JARVIS-Tools package.
data_Eu2Mg
_symmetry_space_group_name_H-M  'Cmcm'
_cell_length_a       8.7888
_cell_length_b       8.78881
_cell_length_c       5.51056
_cell_angle_alpha    90
_cell_angle_beta     90
_cell_angle_gamma    155.555

_symmetry_Int_Tables_number  63
_chemical_formula_structural  Eu2Mg
_chemical_formula_sum  Eu4Mg2
_cell_volume  176.143672601545
_cell_formula_units_Z  2
loop_
  _symmetry_equiv_pos_site_id
 _symmetry_equiv_pos_as_xyz
 1  'x, y, z'
loop_
 _atom_site_type_symbol
 _atom_site_label
 _atom_site_symmetry_multiplicity
 _atom_site_fract_x
 _atom_site_fract_y
 _atom_site_fract_z
 _atom_site_fract_occupancy
 Eu  Eu1  1  0.09082  0.90918  0.25000  1
 Eu  Eu2  1  0.77208  0.22792  0.25000  1
 Eu  Eu3  1  0.90918  0.09082  0.75000  1
 Eu  Eu4  1  0.22792  0.77208  0.75000  1
 Mg  Mg1  1  0.43263  0.56737  0.25000  1
 Mg  Mg2  1  0.56737  0.43263  0.75000  1
