CIF file written using JARVIS-Tools package.
data_Al2CuMo
_symmetry_space_group_name_H-M  'I4/mmm'
_cell_length_a       4.75897
_cell_length_b       4.75897
_cell_length_c       4.75896
_cell_angle_alpha    132.483
_cell_angle_beta     132.483
_cell_angle_gamma    69.4669

_symmetry_Int_Tables_number  139
_chemical_formula_structural  Al2CuMo
_chemical_formula_sum  Al2CuMo
_cell_volume  57.507422752588525
_cell_formula_units_Z  1
loop_
  _symmetry_equiv_pos_site_id
 _symmetry_equiv_pos_as_xyz
 1  'x, y, z'
loop_
 _atom_site_type_symbol
 _atom_site_label
 _atom_site_symmetry_multiplicity
 _atom_site_fract_x
 _atom_site_fract_y
 _atom_site_fract_z
 _atom_site_fract_occupancy
 Al  Al1  1  0.75000  0.25000  0.50000  1
 Al  Al2  1  0.25000  0.75000  0.50000  1
 Cu  Cu1  1  0.50000  0.50000  0.00000  1
 Mo  Mo1  1  0.00000  0.00000  0.00000  1
