CIF file written using JARVIS-Tools package.
data_Zr2CN
_symmetry_space_group_name_H-M  'R-3m'
_cell_length_a       5.70607
_cell_length_b       5.70608
_cell_length_c       5.70608
_cell_angle_alpha    33.538
_cell_angle_beta     33.5379
_cell_angle_gamma    33.5379

_symmetry_Int_Tables_number  166
_chemical_formula_structural  Zr2CN
_chemical_formula_sum  Zr2CN
_cell_volume  50.51125150343056
_cell_formula_units_Z  1
loop_
  _symmetry_equiv_pos_site_id
 _symmetry_equiv_pos_as_xyz
 1  'x, y, z'
loop_
 _atom_site_type_symbol
 _atom_site_label
 _atom_site_symmetry_multiplicity
 _atom_site_fract_x
 _atom_site_fract_y
 _atom_site_fract_z
 _atom_site_fract_occupancy
 C  C1  1  0.00000  0.00000  0.00000  1
 N  N1  1  0.50000  0.50000  0.50000  1
 Zr  Zr1  1  0.25082  0.25082  0.25082  1
 Zr  Zr2  1  0.74918  0.74918  0.74918  1
