CIF file written using JARVIS-Tools package.
data_Zn2GaCuSe4
_symmetry_space_group_name_H-M  'I-42m'
_cell_length_a       6.95003
_cell_length_b       6.95003
_cell_length_c       6.95003
_cell_angle_alpha    131.591
_cell_angle_beta     131.591
_cell_angle_gamma    70.8755

_symmetry_Int_Tables_number  121
_chemical_formula_structural  Zn2GaCuSe4
_chemical_formula_sum  Zn2GaCuSe4
_cell_volume  183.9059557484787
_cell_formula_units_Z  1
loop_
  _symmetry_equiv_pos_site_id
 _symmetry_equiv_pos_as_xyz
 1  'x, y, z'
loop_
 _atom_site_type_symbol
 _atom_site_label
 _atom_site_symmetry_multiplicity
 _atom_site_fract_x
 _atom_site_fract_y
 _atom_site_fract_z
 _atom_site_fract_occupancy
 Cu  Cu1  1  0.00000  0.00000  0.00000  1
 Ga  Ga1  1  0.50000  0.50000  0.00000  1
 Se  Se1  1  0.12559  0.12559  0.49632  1
 Se  Se2  1  0.87441  0.37073  0.00000  1
 Se  Se3  1  0.62927  0.62927  0.50368  1
 Se  Se4  1  0.37073  0.87441  -0.00000  1
 Zn  Zn1  1  0.75000  0.25000  0.50000  1
 Zn  Zn2  1  0.25000  0.75000  0.50000  1
