CIF file written using JARVIS-Tools package.
data_Li2ZrCuO4
_symmetry_space_group_name_H-M  'I-4m2'
_cell_length_a       5.3491
_cell_length_b       5.3491
_cell_length_c       5.3491
_cell_angle_alpha    133.727
_cell_angle_beta     133.727
_cell_angle_gamma    67.5143

_symmetry_Int_Tables_number  119
_chemical_formula_structural  Li2ZrCuO4
_chemical_formula_sum  Li2ZrCuO4
_cell_volume  78.58202829381707
_cell_formula_units_Z  1
loop_
  _symmetry_equiv_pos_site_id
 _symmetry_equiv_pos_as_xyz
 1  'x, y, z'
loop_
 _atom_site_type_symbol
 _atom_site_label
 _atom_site_symmetry_multiplicity
 _atom_site_fract_x
 _atom_site_fract_y
 _atom_site_fract_z
 _atom_site_fract_occupancy
 Cu  Cu1  1  0.00000  0.00000  0.00000  1
 Li  Li1  1  0.50000  0.50000  0.00000  1
 Li  Li2  1  0.25000  0.75000  0.50000  1
 O  O1  1  0.98890  0.48890  0.50000  1
 O  O2  1  0.25445  0.25445  -0.00000  1
 O  O3  1  0.51110  0.01110  0.50000  1
 O  O4  1  0.74555  0.74555  -0.00000  1
 Zr  Zr1  1  0.75000  0.25000  0.50000  1
