CIF file written using JARVIS-Tools package.
data_NdFeCoSi2
_symmetry_space_group_name_H-M  'I-4m2'
_cell_length_a       5.67554
_cell_length_b       5.67554
_cell_length_c       5.67553
_cell_angle_alpha    138.92
_cell_angle_beta     138.92
_cell_angle_gamma    59.4969

_symmetry_Int_Tables_number  119
_chemical_formula_structural  NdFeCoSi2
_chemical_formula_sum  NdFeCoSi2
_cell_volume  78.15902027125561
_cell_formula_units_Z  1
loop_
  _symmetry_equiv_pos_site_id
 _symmetry_equiv_pos_as_xyz
 1  'x, y, z'
loop_
 _atom_site_type_symbol
 _atom_site_label
 _atom_site_symmetry_multiplicity
 _atom_site_fract_x
 _atom_site_fract_y
 _atom_site_fract_z
 _atom_site_fract_occupancy
 Co  Co1  1  0.25000  0.75000  0.50000  1
 Fe  Fe1  1  0.75000  0.25000  0.50000  1
 Nd  Nd1  1  0.00000  0.00000  0.00000  1
 Si  Si1  1  0.63691  0.63691  0.00000  1
 Si  Si2  1  0.36309  0.36309  0.00000  1
