CIF file written using JARVIS-Tools package.
data_Ba3Ho
_symmetry_space_group_name_H-M  'I4/mmm'
_cell_length_a       7.05133
_cell_length_b       7.05133
_cell_length_c       7.05132
_cell_angle_alpha    131.203
_cell_angle_beta     131.203
_cell_angle_gamma    71.4901

_symmetry_Int_Tables_number  139
_chemical_formula_structural  Ba3Ho
_chemical_formula_sum  Ba3Ho
_cell_volume  194.21815297947123
_cell_formula_units_Z  1
loop_
  _symmetry_equiv_pos_site_id
 _symmetry_equiv_pos_as_xyz
 1  'x, y, z'
loop_
 _atom_site_type_symbol
 _atom_site_label
 _atom_site_symmetry_multiplicity
 _atom_site_fract_x
 _atom_site_fract_y
 _atom_site_fract_z
 _atom_site_fract_occupancy
 Ba  Ba1  1  0.75000  0.25000  0.50000  1
 Ba  Ba2  1  0.25000  0.75000  0.50000  1
 Ba  Ba3  1  0.50000  0.50000  -0.00000  1
 Ho  Ho1  1  0.00000  0.00000  0.00000  1
