CIF file written using JARVIS-Tools package.
data_MnH
_symmetry_space_group_name_H-M  'P6_3/mmc'
_cell_length_a       2.60372
_cell_length_b       2.60372
_cell_length_c       5.07834
_cell_angle_alpha    90
_cell_angle_beta     90
_cell_angle_gamma    120

_symmetry_Int_Tables_number  194
_chemical_formula_structural  MnH
_chemical_formula_sum  Mn2H2
_cell_volume  29.815558657434874
_cell_formula_units_Z  2
loop_
  _symmetry_equiv_pos_site_id
 _symmetry_equiv_pos_as_xyz
 1  'x, y, z'
loop_
 _atom_site_type_symbol
 _atom_site_label
 _atom_site_symmetry_multiplicity
 _atom_site_fract_x
 _atom_site_fract_y
 _atom_site_fract_z
 _atom_site_fract_occupancy
 H  H1  1  0.66667  0.33333  0.25000  1
 H  H2  1  0.33333  0.66667  0.75000  1
 Mn  Mn1  1  0.00000  0.00000  0.50000  1
 Mn  Mn2  1  0.00000  0.00000  0.00000  1
