CIF file written using JARVIS-Tools package.
data_FeBiO3
_symmetry_space_group_name_H-M  'Pm-3m'
_cell_length_a       3.83711
_cell_length_b       3.83711
_cell_length_c       7.67343
_cell_angle_alpha    90
_cell_angle_beta     90
_cell_angle_gamma    90

_symmetry_Int_Tables_number  221
_chemical_formula_structural  FeBiO3
_chemical_formula_sum  Fe2Bi2O6
_cell_volume  112.97903657398821
_cell_formula_units_Z  2
loop_
  _symmetry_equiv_pos_site_id
 _symmetry_equiv_pos_as_xyz
 1  'x, y, z'
loop_
 _atom_site_type_symbol
 _atom_site_label
 _atom_site_symmetry_multiplicity
 _atom_site_fract_x
 _atom_site_fract_y
 _atom_site_fract_z
 _atom_site_fract_occupancy
 Bi  Bi1  1  0.00000  0.00000  0.50000  1
 Bi  Bi2  1  0.00000  0.00000  0.00000  1
 Fe  Fe1  1  0.49999  0.49999  0.75000  1
 Fe  Fe2  1  0.50001  0.50001  0.25000  1
 O  O1  1  0.50002  -0.00001  0.75000  1
 O  O2  1  0.50000  0.50000  0.50000  1
 O  O3  1  0.50000  0.50000  0.00000  1
 O  O4  1  0.49998  0.00001  0.25000  1
 O  O5  1  0.00001  0.49998  0.25000  1
 O  O6  1  -0.00001  0.50002  0.75000  1
