CIF file written using JARVIS-Tools package.
data_Tm2TeS2
_symmetry_space_group_name_H-M  'Immm'
_cell_length_a       7.39772
_cell_length_b       7.39751
_cell_length_c       7.39782
_cell_angle_alpha    147.717
_cell_angle_beta     138.05
_cell_angle_gamma    53.9043

_symmetry_Int_Tables_number  71
_chemical_formula_structural  Tm2TeS2
_chemical_formula_sum  Tm2TeS2
_cell_volume  143.65287406783963
_cell_formula_units_Z  1
loop_
  _symmetry_equiv_pos_site_id
 _symmetry_equiv_pos_as_xyz
 1  'x, y, z'
loop_
 _atom_site_type_symbol
 _atom_site_label
 _atom_site_symmetry_multiplicity
 _atom_site_fract_x
 _atom_site_fract_y
 _atom_site_fract_z
 _atom_site_fract_occupancy
 S  S1  1  0.69937  0.69934  -0.00003  1
 S  S2  1  0.30063  0.30066  0.00003  1
 Te  Te1  1  0.00000  0.00000  0.00000  1
 Tm  Tm1  1  0.83192  0.33192  0.49997  1
 Tm  Tm2  1  0.16808  0.66808  0.50003  1
