CIF file written using JARVIS-Tools package.
data_TiNbAlC
_symmetry_space_group_name_H-M  'P-3m1'
_cell_length_a       3.10228
_cell_length_b       3.10228
_cell_length_c       13.8309
_cell_angle_alpha    90
_cell_angle_beta     90
_cell_angle_gamma    120

_symmetry_Int_Tables_number  164
_chemical_formula_structural  TiNbAlC
_chemical_formula_sum  Ti2Nb2Al2C2
_cell_volume  115.2773240792797
_cell_formula_units_Z  2
loop_
  _symmetry_equiv_pos_site_id
 _symmetry_equiv_pos_as_xyz
 1  'x, y, z'
loop_
 _atom_site_type_symbol
 _atom_site_label
 _atom_site_symmetry_multiplicity
 _atom_site_fract_x
 _atom_site_fract_y
 _atom_site_fract_z
 _atom_site_fract_occupancy
 Al  Al1  1  0.33333  0.66667  0.75487  1
 Al  Al2  1  0.66667  0.33333  0.24513  1
 C  C1  1  0.00000  0.00000  0.50000  1
 C  C2  1  0.00000  0.00000  0.00000  1
 Nb  Nb1  1  0.33333  0.66667  0.40863  1
 Nb  Nb2  1  0.66667  0.33333  0.59137  1
 Ti  Ti1  1  0.66667  0.33333  0.91748  1
 Ti  Ti2  1  0.33333  0.66667  0.08252  1
