CIF file written using JARVIS-Tools package.
data_VOF
_symmetry_space_group_name_H-M  'P4_12_12'
_cell_length_a       4.65397
_cell_length_b       4.65397
_cell_length_c       6.13344
_cell_angle_alpha    90
_cell_angle_beta     90
_cell_angle_gamma    90

_symmetry_Int_Tables_number  92
_chemical_formula_structural  VOF
_chemical_formula_sum  V4O4F4
_cell_volume  132.84705915604275
_cell_formula_units_Z  4
loop_
  _symmetry_equiv_pos_site_id
 _symmetry_equiv_pos_as_xyz
 1  'x, y, z'
loop_
 _atom_site_type_symbol
 _atom_site_label
 _atom_site_symmetry_multiplicity
 _atom_site_fract_x
 _atom_site_fract_y
 _atom_site_fract_z
 _atom_site_fract_occupancy
 F  F1  1  0.20733  0.79267  0.75000  1
 F  F2  1  0.70733  0.70733  0.00000  1
 F  F3  1  0.29267  0.29267  0.50000  1
 F  F4  1  0.79267  0.20733  0.25000  1
 O  O1  1  0.18497  0.81503  0.25000  1
 O  O2  1  0.68497  0.68497  0.50000  1
 O  O3  1  0.31503  0.31503  0.00000  1
 O  O4  1  0.81503  0.18497  0.75000  1
 V  V1  1  0.03194  0.03194  0.00000  1
 V  V2  1  0.96806  0.96806  0.50000  1
 V  V3  1  0.53194  0.46806  0.75000  1
 V  V4  1  0.46806  0.53194  0.25000  1
