CIF file written using JARVIS-Tools package.
data_Sr2ZnN2
_symmetry_space_group_name_H-M  'I4/mmm'
_cell_length_a       3.855
_cell_length_b       3.855
_cell_length_c       6.98797
_cell_angle_alpha    106.012
_cell_angle_beta     106.012
_cell_angle_gamma    90

_symmetry_Int_Tables_number  139
_chemical_formula_structural  Sr2ZnN2
_chemical_formula_sum  Sr2ZnN2
_cell_volume  95.62138891884688
_cell_formula_units_Z  1
loop_
  _symmetry_equiv_pos_site_id
 _symmetry_equiv_pos_as_xyz
 1  'x, y, z'
loop_
 _atom_site_type_symbol
 _atom_site_label
 _atom_site_symmetry_multiplicity
 _atom_site_fract_x
 _atom_site_fract_y
 _atom_site_fract_z
 _atom_site_fract_occupancy
 N  N1  1  0.85652  0.85652  0.71303  1
 N  N2  1  0.14348  0.14348  0.28697  1
 Sr  Sr1  1  0.65862  0.65862  0.31724  1
 Sr  Sr2  1  0.34138  0.34138  0.68276  1
 Zn  Zn1  1  0.00000  0.00000  0.00000  1
