CIF file written using JARVIS-Tools package.
data_Ta3W
_symmetry_space_group_name_H-M  'Fm-3m'
_cell_length_a       4.6307
_cell_length_b       4.63071
_cell_length_c       4.63071
_cell_angle_alpha    60.0001
_cell_angle_beta     60
_cell_angle_gamma    60

_symmetry_Int_Tables_number  225
_chemical_formula_structural  Ta3W
_chemical_formula_sum  Ta3W
_cell_volume  70.21462347192595
_cell_formula_units_Z  1
loop_
  _symmetry_equiv_pos_site_id
 _symmetry_equiv_pos_as_xyz
 1  'x, y, z'
loop_
 _atom_site_type_symbol
 _atom_site_label
 _atom_site_symmetry_multiplicity
 _atom_site_fract_x
 _atom_site_fract_y
 _atom_site_fract_z
 _atom_site_fract_occupancy
 Ta  Ta1  1  0.25000  0.25000  0.25000  1
 Ta  Ta2  1  0.75000  0.75000  0.75000  1
 Ta  Ta3  1  0.50000  0.50000  0.50000  1
 W  W1  1  0.00000  0.00000  0.00000  1
