CIF file written using JARVIS-Tools package.
data_LaMn2Si2
_symmetry_space_group_name_H-M  'I4/mmm'
_cell_length_a       4.0221
_cell_length_b       4.0221
_cell_length_c       6.0447
_cell_angle_alpha    109.433
_cell_angle_beta     109.433
_cell_angle_gamma    89.9999

_symmetry_Int_Tables_number  139
_chemical_formula_structural  LaMn2Si2
_chemical_formula_sum  LaMn2Si2
_cell_volume  86.28709050280203
_cell_formula_units_Z  1
loop_
  _symmetry_equiv_pos_site_id
 _symmetry_equiv_pos_as_xyz
 1  'x, y, z'
loop_
 _atom_site_type_symbol
 _atom_site_label
 _atom_site_symmetry_multiplicity
 _atom_site_fract_x
 _atom_site_fract_y
 _atom_site_fract_z
 _atom_site_fract_occupancy
 La  La1  1  0.00000  0.00000  0.00000  1
 Mn  Mn1  1  0.25000  0.75000  0.50000  1
 Mn  Mn2  1  0.75000  0.25000  0.50000  1
 Si  Si1  1  0.63022  0.63022  0.26043  1
 Si  Si2  1  0.36978  0.36978  0.73957  1
