CIF file written using JARVIS-Tools package.
data_MgGe3
_symmetry_space_group_name_H-M  'P6_3/mmc'
_cell_length_a       5.93269
_cell_length_b       5.93269
_cell_length_c       5.14087
_cell_angle_alpha    90
_cell_angle_beta     90
_cell_angle_gamma    120

_symmetry_Int_Tables_number  194
_chemical_formula_structural  MgGe3
_chemical_formula_sum  Mg2Ge6
_cell_volume  156.7003593645128
_cell_formula_units_Z  2
loop_
  _symmetry_equiv_pos_site_id
 _symmetry_equiv_pos_as_xyz
 1  'x, y, z'
loop_
 _atom_site_type_symbol
 _atom_site_label
 _atom_site_symmetry_multiplicity
 _atom_site_fract_x
 _atom_site_fract_y
 _atom_site_fract_z
 _atom_site_fract_occupancy
 Ge  Ge1  1  0.16373  0.32747  0.25000  1
 Ge  Ge2  1  0.67253  0.83627  0.25000  1
 Ge  Ge3  1  0.16373  0.83627  0.25000  1
 Ge  Ge4  1  0.83627  0.16373  0.75000  1
 Ge  Ge5  1  0.32747  0.16373  0.75000  1
 Ge  Ge6  1  0.83627  0.67253  0.75000  1
 Mg  Mg1  1  0.66667  0.33333  0.25000  1
 Mg  Mg2  1  0.33333  0.66667  0.75000  1
