CIF file written using JARVIS-Tools package.
data_Tb2SiGe
_symmetry_space_group_name_H-M  'Amm2'
_cell_length_a       5.74585
_cell_length_b       5.74585
_cell_length_c       3.9112
_cell_angle_alpha    90
_cell_angle_beta     90
_cell_angle_gamma    136.057

_symmetry_Int_Tables_number  38
_chemical_formula_structural  Tb2SiGe
_chemical_formula_sum  Tb2SiGe
_cell_volume  89.60695177837987
_cell_formula_units_Z  1
loop_
  _symmetry_equiv_pos_site_id
 _symmetry_equiv_pos_as_xyz
 1  'x, y, z'
loop_
 _atom_site_type_symbol
 _atom_site_label
 _atom_site_symmetry_multiplicity
 _atom_site_fract_x
 _atom_site_fract_y
 _atom_site_fract_z
 _atom_site_fract_occupancy
 Ge  Ge1  1  0.41875  0.58125  0.50000  1
 Si  Si1  1  0.58234  0.41766  0.00000  1
 Tb  Tb1  1  0.13876  0.86124  0.50000  1
 Tb  Tb2  1  0.86015  0.13985  0.00000  1
