CIF file written using JARVIS-Tools package.
data_CrCuO2
_symmetry_space_group_name_H-M  'R-3m'
_cell_length_a       5.19575
_cell_length_b       2.99984
_cell_length_c       5.97309
_cell_angle_alpha    90
_cell_angle_beta     106.848
_cell_angle_gamma    90

_symmetry_Int_Tables_number  166
_chemical_formula_structural  CrCuO2
_chemical_formula_sum  Cr2Cu2O4
_cell_volume  89.10302157416703
_cell_formula_units_Z  2
loop_
  _symmetry_equiv_pos_site_id
 _symmetry_equiv_pos_as_xyz
 1  'x, y, z'
loop_
 _atom_site_type_symbol
 _atom_site_label
 _atom_site_symmetry_multiplicity
 _atom_site_fract_x
 _atom_site_fract_y
 _atom_site_fract_z
 _atom_site_fract_occupancy
 Cr  Cr1  1  0.50000  0.00000  0.50000  1
 Cr  Cr2  1  -0.00000  0.50000  0.50000  1
 Cu  Cu1  1  0.00000  0.00000  0.00000  1
 Cu  Cu2  1  0.50000  0.50000  -0.00000  1
 O  O1  1  0.10826  0.00000  0.32474  1
 O  O2  1  0.89174  0.00000  0.67526  1
 O  O3  1  0.60826  0.50000  0.32474  1
 O  O4  1  0.39174  0.50000  0.67526  1
