CIF file written using JARVIS-Tools package.
data_NaHF2
_symmetry_space_group_name_H-M  'R-3m'
_cell_length_a       5.0495
_cell_length_b       5.0495
_cell_length_c       5.0495
_cell_angle_alpha    39.6916
_cell_angle_beta     39.6916
_cell_angle_gamma    39.6916

_symmetry_Int_Tables_number  166
_chemical_formula_structural  NaHF2
_chemical_formula_sum  NaHF2
_cell_volume  47.28888864621525
_cell_formula_units_Z  1
loop_
  _symmetry_equiv_pos_site_id
 _symmetry_equiv_pos_as_xyz
 1  'x, y, z'
loop_
 _atom_site_type_symbol
 _atom_site_label
 _atom_site_symmetry_multiplicity
 _atom_site_fract_x
 _atom_site_fract_y
 _atom_site_fract_z
 _atom_site_fract_occupancy
 F  F1  1  0.58244  0.58244  0.58244  1
 F  F2  1  0.41756  0.41756  0.41756  1
 H  H1  1  0.50000  0.50000  0.50000  1
 Na  Na1  1  0.00000  0.00000  0.00000  1
