CIF file written using JARVIS-Tools package.
data_ZrScMnNi3
_symmetry_space_group_name_H-M  'R3m'
_cell_length_a       4.94915
_cell_length_b       4.94915
_cell_length_c       4.89791
_cell_angle_alpha    59.6533
_cell_angle_beta     120.347
_cell_angle_gamma    120

_symmetry_Int_Tables_number  160
_chemical_formula_structural  ZrScMnNi3
_chemical_formula_sum  ZrScMnNi3
_cell_volume  84.38431846578567
_cell_formula_units_Z  1
loop_
  _symmetry_equiv_pos_site_id
 _symmetry_equiv_pos_as_xyz
 1  'x, y, z'
loop_
 _atom_site_type_symbol
 _atom_site_label
 _atom_site_symmetry_multiplicity
 _atom_site_fract_x
 _atom_site_fract_y
 _atom_site_fract_z
 _atom_site_fract_occupancy
 Mn  Mn1  1  0.62520  0.37480  0.87560  1
 Ni  Ni1  1  0.62502  0.37498  0.37623  1
 Ni  Ni2  1  0.62502  0.87381  0.37623  1
 Ni  Ni3  1  0.12619  0.37498  0.37623  1
 Sc  Sc1  1  0.25125  0.74875  0.75375  1
 Zr  Zr1  1  0.99732  0.00268  0.99197  1
