CIF file written using JARVIS-Tools package.
data_PrSi2
_symmetry_space_group_name_H-M  'I4_1/amd'
_cell_length_a       4.28795
_cell_length_b       4.28794
_cell_length_c       7.63182
_cell_angle_alpha    106.315
_cell_angle_beta     106.315
_cell_angle_gamma    90

_symmetry_Int_Tables_number  141
_chemical_formula_structural  PrSi2
_chemical_formula_sum  Pr2Si4
_cell_volume  128.77292573991298
_cell_formula_units_Z  2
loop_
  _symmetry_equiv_pos_site_id
 _symmetry_equiv_pos_as_xyz
 1  'x, y, z'
loop_
 _atom_site_type_symbol
 _atom_site_label
 _atom_site_symmetry_multiplicity
 _atom_site_fract_x
 _atom_site_fract_y
 _atom_site_fract_z
 _atom_site_fract_occupancy
 Pr  Pr1  1  0.87500  0.62500  0.25000  1
 Pr  Pr2  1  0.12500  0.37500  0.75000  1
 Si  Si1  1  0.70967  0.95967  0.91935  1
 Si  Si2  1  0.45967  0.20967  0.41935  1
 Si  Si3  1  0.54033  0.79033  0.58065  1
 Si  Si4  1  0.29033  0.04033  0.08065  1
