CIF file written using JARVIS-Tools package.
data_ErNi2B2C
_symmetry_space_group_name_H-M  'I4/mmm'
_cell_length_a       3.51491
_cell_length_b       3.51492
_cell_length_c       5.78642
_cell_angle_alpha    107.681
_cell_angle_beta     107.681
_cell_angle_gamma    90

_symmetry_Int_Tables_number  139
_chemical_formula_structural  ErNi2B2C
_chemical_formula_sum  ErNi2B2C
_cell_volume  64.55865158203854
_cell_formula_units_Z  1
loop_
  _symmetry_equiv_pos_site_id
 _symmetry_equiv_pos_as_xyz
 1  'x, y, z'
loop_
 _atom_site_type_symbol
 _atom_site_label
 _atom_site_symmetry_multiplicity
 _atom_site_fract_x
 _atom_site_fract_y
 _atom_site_fract_z
 _atom_site_fract_occupancy
 B  B1  1  0.35805  0.35805  0.71610  1
 B  B2  1  0.64195  0.64195  0.28390  1
 C  C1  1  0.50000  0.50000  -0.00000  1
 Er  Er1  1  0.00000  0.00000  0.00000  1
 Ni  Ni1  1  0.25000  0.75000  0.50000  1
 Ni  Ni2  1  0.75000  0.25000  0.50000  1
