CIF file written using JARVIS-Tools package.
data_RbPrS2
_symmetry_space_group_name_H-M  'R-3m'
_cell_length_a       8.02643
_cell_length_b       8.02643
_cell_length_c       8.02643
_cell_angle_alpha    30.6154
_cell_angle_beta     30.6154
_cell_angle_gamma    30.6154

_symmetry_Int_Tables_number  166
_chemical_formula_structural  RbPrS2
_chemical_formula_sum  RbPrS2
_cell_volume  118.90366241969762
_cell_formula_units_Z  1
loop_
  _symmetry_equiv_pos_site_id
 _symmetry_equiv_pos_as_xyz
 1  'x, y, z'
loop_
 _atom_site_type_symbol
 _atom_site_label
 _atom_site_symmetry_multiplicity
 _atom_site_fract_x
 _atom_site_fract_y
 _atom_site_fract_z
 _atom_site_fract_occupancy
 Pr  Pr1  1  0.50000  0.50000  0.50000  1
 Rb  Rb1  1  0.00000  0.00000  0.00000  1
 S  S1  1  0.76611  0.76611  0.76611  1
 S  S2  1  0.23389  0.23389  0.23389  1
