CIF file written using JARVIS-Tools package.
data_Sr2CuO4
_symmetry_space_group_name_H-M  'I4/mmm'
_cell_length_a       6.76145
_cell_length_b       6.76145
_cell_length_c       6.76145
_cell_angle_alpha    146.632
_cell_angle_beta     146.632
_cell_angle_gamma    47.9091

_symmetry_Int_Tables_number  139
_chemical_formula_structural  Sr2CuO4
_chemical_formula_sum  Sr2CuO4
_cell_volume  93.13407075562421
_cell_formula_units_Z  1
loop_
  _symmetry_equiv_pos_site_id
 _symmetry_equiv_pos_as_xyz
 1  'x, y, z'
loop_
 _atom_site_type_symbol
 _atom_site_label
 _atom_site_symmetry_multiplicity
 _atom_site_fract_x
 _atom_site_fract_y
 _atom_site_fract_z
 _atom_site_fract_occupancy
 Cu  Cu1  1  0.00000  0.00000  0.00000  1
 O  O1  1  0.50000  0.00000  0.50000  1
 O  O2  1  0.15793  0.15793  -0.00000  1
 O  O3  1  0.84207  0.84207  0.00000  1
 O  O4  1  0.00000  0.50000  0.50000  1
 Sr  Sr1  1  0.35936  0.35936  0.00000  1
 Sr  Sr2  1  0.64064  0.64064  0.00000  1
