CIF file written using JARVIS-Tools package.
data_Cr2GaN
_symmetry_space_group_name_H-M  'P6_3/mmc'
_cell_length_a       2.93118
_cell_length_b       2.93118
_cell_length_c       12.1528
_cell_angle_alpha    90
_cell_angle_beta     90
_cell_angle_gamma    120

_symmetry_Int_Tables_number  194
_chemical_formula_structural  Cr2GaN
_chemical_formula_sum  Cr4Ga2N2
_cell_volume  90.42641057564992
_cell_formula_units_Z  2
loop_
  _symmetry_equiv_pos_site_id
 _symmetry_equiv_pos_as_xyz
 1  'x, y, z'
loop_
 _atom_site_type_symbol
 _atom_site_label
 _atom_site_symmetry_multiplicity
 _atom_site_fract_x
 _atom_site_fract_y
 _atom_site_fract_z
 _atom_site_fract_occupancy
 Cr  Cr1  1  0.66667  0.33333  0.58077  1
 Cr  Cr2  1  0.33333  0.66667  0.41923  1
 Cr  Cr3  1  0.33333  0.66667  0.08077  1
 Cr  Cr4  1  0.66667  0.33333  0.91923  1
 Ga  Ga1  1  0.66667  0.33333  0.25000  1
 Ga  Ga2  1  0.33333  0.66667  0.75000  1
 N  N1  1  0.00000  0.00000  0.50000  1
 N  N2  1  0.00000  0.00000  0.00000  1
