data_image0
_chemical_formula_structural       Ge3Pt6
_chemical_formula_sum              "Ge3 Pt6"
_cell_length_a       6.78025
_cell_length_b       6.78025
_cell_length_c       3.5787
_cell_angle_alpha    90
_cell_angle_beta     90
_cell_angle_gamma    119.999

_space_group_name_H-M_alt    "P 1"
_space_group_IT_number       1

loop_
  _space_group_symop_operation_xyz
  'x, y, z'

loop_
  _atom_site_type_symbol
  _atom_site_label
  _atom_site_symmetry_multiplicity
  _atom_site_fract_x
  _atom_site_fract_y
  _atom_site_fract_z
  _atom_site_occupancy
  Ge  Ge1       1.0  0.66700  0.33300  0.00000  1.0000
  Ge  Ge2       1.0  0.33300  0.66700  0.00000  1.0000
  Ge  Ge3       1.0  0.00001  0.00001  0.50000  1.0000
  Pt  Pt1       1.0  0.27900  0.00001  0.00000  1.0000
  Pt  Pt2       1.0  0.00001  0.27900  0.00000  1.0000
  Pt  Pt3       1.0  0.72100  0.72100  0.00000  1.0000
  Pt  Pt4       1.0  0.61700  0.00001  0.50000  1.0000
  Pt  Pt5       1.0  0.38300  0.38300  0.50000  1.0000
  Pt  Pt6       1.0  0.00001  0.61700  0.50000  1.0000
