CIF file written using JARVIS-Tools package.
data_InSnTe2
_symmetry_space_group_name_H-M  'R-3m'
_cell_length_a       7.78654
_cell_length_b       7.78654
_cell_length_c       7.78653
_cell_angle_alpha    33.5537
_cell_angle_beta     33.5536
_cell_angle_gamma    33.5537

_symmetry_Int_Tables_number  166
_chemical_formula_structural  InSnTe2
_chemical_formula_sum  InSnTe2
_cell_volume  128.4632852218612
_cell_formula_units_Z  1
loop_
  _symmetry_equiv_pos_site_id
 _symmetry_equiv_pos_as_xyz
 1  'x, y, z'
loop_
 _atom_site_type_symbol
 _atom_site_label
 _atom_site_symmetry_multiplicity
 _atom_site_fract_x
 _atom_site_fract_y
 _atom_site_fract_z
 _atom_site_fract_occupancy
 In  In1  1  0.00000  0.00000  0.00000  1
 Sn  Sn1  1  0.50000  0.50000  0.50000  1
 Te  Te1  1  0.25022  0.25022  0.25022  1
 Te  Te2  1  0.74978  0.74978  0.74978  1
