CIF file written using JARVIS-Tools package.
data_K4Br2O
_symmetry_space_group_name_H-M  'I4/mmm'
_cell_length_a       5.11882
_cell_length_b       5.11882
_cell_length_c       8.99183
_cell_angle_alpha    106.537
_cell_angle_beta     106.537
_cell_angle_gamma    90

_symmetry_Int_Tables_number  139
_chemical_formula_structural  K4Br2O
_chemical_formula_sum  K4Br2O
_cell_volume  215.67465729883082
_cell_formula_units_Z  1
loop_
  _symmetry_equiv_pos_site_id
 _symmetry_equiv_pos_as_xyz
 1  'x, y, z'
loop_
 _atom_site_type_symbol
 _atom_site_label
 _atom_site_symmetry_multiplicity
 _atom_site_fract_x
 _atom_site_fract_y
 _atom_site_fract_z
 _atom_site_fract_occupancy
 Br  Br1  1  0.35584  0.35584  0.71167  1
 Br  Br2  1  0.64416  0.64416  0.28833  1
 K  K1  1  0.15561  0.15561  0.31122  1
 K  K2  1  0.00000  0.50000  0.00000  1
 K  K3  1  0.84439  0.84439  0.68878  1
 K  K4  1  0.50000  -0.00000  0.00000  1
 O  O1  1  0.00000  0.00000  0.00000  1
