CIF file written using JARVIS-Tools package.
data_Li2CoO2
_symmetry_space_group_name_H-M  'P-3m1'
_cell_length_a       3.08744
_cell_length_b       3.08914
_cell_length_c       5.13245
_cell_angle_alpha    89.987
_cell_angle_beta     90
_cell_angle_gamma    119.982

_symmetry_Int_Tables_number  164
_chemical_formula_structural  Li2CoO2
_chemical_formula_sum  Li2CoO2
_cell_volume  42.4005510848561
_cell_formula_units_Z  1
loop_
  _symmetry_equiv_pos_site_id
 _symmetry_equiv_pos_as_xyz
 1  'x, y, z'
loop_
 _atom_site_type_symbol
 _atom_site_label
 _atom_site_symmetry_multiplicity
 _atom_site_fract_x
 _atom_site_fract_y
 _atom_site_fract_z
 _atom_site_fract_occupancy
 Co  Co1  1  0.99996  0.00000  0.00000  1
 Li  Li1  1  0.33333  0.66674  0.64110  1
 Li  Li2  1  0.66659  0.33326  0.35890  1
 O  O1  1  0.33339  0.66686  0.24130  1
 O  O2  1  0.66653  0.33314  0.75870  1
