CIF file written using JARVIS-Tools package.
data_MgNi2
_symmetry_space_group_name_H-M  'Fd-3m'
_cell_length_a       4.78802
_cell_length_b       4.78802
_cell_length_c       4.78802
_cell_angle_alpha    60
_cell_angle_beta     60
_cell_angle_gamma    60

_symmetry_Int_Tables_number  227
_chemical_formula_structural  MgNi2
_chemical_formula_sum  Mg2Ni4
_cell_volume  77.61635904094524
_cell_formula_units_Z  2
loop_
  _symmetry_equiv_pos_site_id
 _symmetry_equiv_pos_as_xyz
 1  'x, y, z'
loop_
 _atom_site_type_symbol
 _atom_site_label
 _atom_site_symmetry_multiplicity
 _atom_site_fract_x
 _atom_site_fract_y
 _atom_site_fract_z
 _atom_site_fract_occupancy
 Mg  Mg1  1  0.75000  0.75000  0.75000  1
 Mg  Mg2  1  0.50000  0.50000  0.50000  1
 Ni  Ni1  1  0.12500  0.12500  0.12500  1
 Ni  Ni2  1  0.62500  0.12500  0.12500  1
 Ni  Ni3  1  0.12500  0.12500  0.62500  1
 Ni  Ni4  1  0.12500  0.62500  0.12500  1
