CIF file written using JARVIS-Tools package.
data_Zr6NiSb2
_symmetry_space_group_name_H-M  'P-62m'
_cell_length_a       7.77433
_cell_length_b       7.77433
_cell_length_c       3.67714
_cell_angle_alpha    90
_cell_angle_beta     90
_cell_angle_gamma    120

_symmetry_Int_Tables_number  189
_chemical_formula_structural  Zr6NiSb2
_chemical_formula_sum  Zr6NiSb2
_cell_volume  192.47157168622167
_cell_formula_units_Z  1
loop_
  _symmetry_equiv_pos_site_id
 _symmetry_equiv_pos_as_xyz
 1  'x, y, z'
loop_
 _atom_site_type_symbol
 _atom_site_label
 _atom_site_symmetry_multiplicity
 _atom_site_fract_x
 _atom_site_fract_y
 _atom_site_fract_z
 _atom_site_fract_occupancy
 Ni  Ni1  1  0.00000  0.00000  0.00000  1
 Sb  Sb1  1  0.33333  0.66667  0.50000  1
 Sb  Sb2  1  0.66667  0.33333  0.50000  1
 Zr  Zr1  1  0.24071  0.00000  0.50000  1
 Zr  Zr2  1  0.00000  0.24071  0.50000  1
 Zr  Zr3  1  0.75929  0.75929  0.50000  1
 Zr  Zr4  1  0.59804  -0.00000  0.00000  1
 Zr  Zr5  1  -0.00000  0.59804  0.00000  1
 Zr  Zr6  1  0.40196  0.40196  0.00000  1
