CIF file written using JARVIS-Tools package.
data_In3Pt5
_symmetry_space_group_name_H-M  'P-6m2'
_cell_length_a       4.11531
_cell_length_b       4.11531
_cell_length_c       11.097
_cell_angle_alpha    90
_cell_angle_beta     90
_cell_angle_gamma    120

_symmetry_Int_Tables_number  187
_chemical_formula_structural  In3Pt5
_chemical_formula_sum  In3Pt5
_cell_volume  162.75742679617207
_cell_formula_units_Z  1
loop_
  _symmetry_equiv_pos_site_id
 _symmetry_equiv_pos_as_xyz
 1  'x, y, z'
loop_
 _atom_site_type_symbol
 _atom_site_label
 _atom_site_symmetry_multiplicity
 _atom_site_fract_x
 _atom_site_fract_y
 _atom_site_fract_z
 _atom_site_fract_occupancy
 In  In1  1  0.00000  0.00000  0.50000  1
 In  In2  1  0.66667  0.33333  0.23469  1
 In  In3  1  0.66667  0.33333  0.76531  1
 Pt  Pt1  1  0.33333  0.66667  0.12069  1
 Pt  Pt2  1  0.33333  0.66667  0.62726  1
 Pt  Pt3  1  0.33333  0.66667  0.37274  1
 Pt  Pt4  1  0.33333  0.66667  0.87931  1
 Pt  Pt5  1  0.00000  0.00000  0.00000  1
