CIF file written using JARVIS-Tools package.
data_Fe
_symmetry_space_group_name_H-M  'Im-3m'
_cell_length_a       2.44002
_cell_length_b       2.44002
_cell_length_c       7.97163
_cell_angle_alpha    90
_cell_angle_beta     90
_cell_angle_gamma    109.466

_symmetry_Int_Tables_number  229
_chemical_formula_structural  Fe
_chemical_formula_sum  Fe4
_cell_volume  44.74804921121649
_cell_formula_units_Z  4
loop_
  _symmetry_equiv_pos_site_id
 _symmetry_equiv_pos_as_xyz
 1  'x, y, z'
loop_
 _atom_site_type_symbol
 _atom_site_label
 _atom_site_symmetry_multiplicity
 _atom_site_fract_x
 _atom_site_fract_y
 _atom_site_fract_z
 _atom_site_fract_occupancy
 Fe  Fe1  1  1.00000  0.00000  0.50001  1
 Fe  Fe2  1  0.50000  0.50000  0.75000  1
 Fe  Fe3  1  0.00000  0.00000  0.00000  1
 Fe  Fe4  1  0.50000  0.50000  0.25000  1
