CIF file written using JARVIS-Tools package.
data_TbCdPd
_symmetry_space_group_name_H-M  'P-62m'
_cell_length_a       7.64414
_cell_length_b       7.64414
_cell_length_c       3.8741
_cell_angle_alpha    90
_cell_angle_beta     90
_cell_angle_gamma    120

_symmetry_Int_Tables_number  189
_chemical_formula_structural  TbCdPd
_chemical_formula_sum  Tb3Cd3Pd3
_cell_volume  196.04657682734108
_cell_formula_units_Z  3
loop_
  _symmetry_equiv_pos_site_id
 _symmetry_equiv_pos_as_xyz
 1  'x, y, z'
loop_
 _atom_site_type_symbol
 _atom_site_label
 _atom_site_symmetry_multiplicity
 _atom_site_fract_x
 _atom_site_fract_y
 _atom_site_fract_z
 _atom_site_fract_occupancy
 Cd  Cd1  1  0.26012  -0.00000  0.50000  1
 Cd  Cd2  1  -0.00000  0.26012  0.50000  1
 Cd  Cd3  1  0.73988  0.73988  0.50000  1
 Pd  Pd1  1  0.33333  0.66667  0.50000  1
 Pd  Pd2  1  0.66667  0.33333  0.50000  1
 Pd  Pd3  1  0.00000  0.00000  0.00000  1
 Tb  Tb1  1  0.59686  -0.00000  0.00000  1
 Tb  Tb2  1  -0.00000  0.59686  0.00000  1
 Tb  Tb3  1  0.40314  0.40314  0.00000  1
