CIF file written using JARVIS-Tools package.
data_PrYSn6
_symmetry_space_group_name_H-M  'P4/mmm'
_cell_length_a       4.76651
_cell_length_b       4.76651
_cell_length_c       9.4989
_cell_angle_alpha    90
_cell_angle_beta     90
_cell_angle_gamma    90

_symmetry_Int_Tables_number  123
_chemical_formula_structural  PrYSn6
_chemical_formula_sum  PrYSn6
_cell_volume  215.81127139380524
_cell_formula_units_Z  1
loop_
  _symmetry_equiv_pos_site_id
 _symmetry_equiv_pos_as_xyz
 1  'x, y, z'
loop_
 _atom_site_type_symbol
 _atom_site_label
 _atom_site_symmetry_multiplicity
 _atom_site_fract_x
 _atom_site_fract_y
 _atom_site_fract_z
 _atom_site_fract_occupancy
 Pr  Pr1  1  0.00000  0.00000  0.00000  1
 Sn  Sn1  1  0.50000  0.50000  0.00000  1
 Sn  Sn2  1  0.50000  0.50000  0.50000  1
 Sn  Sn3  1  0.50000  0.00000  0.25566  1
 Sn  Sn4  1  0.50000  0.00000  0.74434  1
 Sn  Sn5  1  0.00000  0.50000  0.25566  1
 Sn  Sn6  1  0.00000  0.50000  0.74434  1
 Y  Y1  1  0.00000  0.00000  0.50000  1
