CIF file written using JARVIS-Tools package.
data_Na2HgO2
_symmetry_space_group_name_H-M  'I4/mmm'
_cell_length_a       3.40734
_cell_length_b       3.40735
_cell_length_c       7.1411
_cell_angle_alpha    103.802
_cell_angle_beta     103.802
_cell_angle_gamma    90

_symmetry_Int_Tables_number  139
_chemical_formula_structural  Na2HgO2
_chemical_formula_sum  Na2HgO2
_cell_volume  78.04665186161061
_cell_formula_units_Z  1
loop_
  _symmetry_equiv_pos_site_id
 _symmetry_equiv_pos_as_xyz
 1  'x, y, z'
loop_
 _atom_site_type_symbol
 _atom_site_label
 _atom_site_symmetry_multiplicity
 _atom_site_fract_x
 _atom_site_fract_y
 _atom_site_fract_z
 _atom_site_fract_occupancy
 Hg  Hg1  1  0.00000  0.00000  0.00000  1
 Na  Na1  1  0.67679  0.67679  0.35359  1
 Na  Na2  1  0.32321  0.32321  0.64641  1
 O  O1  1  0.85052  0.85052  0.70104  1
 O  O2  1  0.14948  0.14948  0.29896  1
