CIF file written using JARVIS-Tools package.
data_Sm2CuO4
_symmetry_space_group_name_H-M  'I4/mmm'
_cell_length_a       3.93066
_cell_length_b       3.93066
_cell_length_c       6.62651
_cell_angle_alpha    107.253
_cell_angle_beta     107.253
_cell_angle_gamma    89.9999

_symmetry_Int_Tables_number  139
_chemical_formula_structural  Sm2CuO4
_chemical_formula_sum  Sm2CuO4
_cell_volume  92.93918116322604
_cell_formula_units_Z  1
loop_
  _symmetry_equiv_pos_site_id
 _symmetry_equiv_pos_as_xyz
 1  'x, y, z'
loop_
 _atom_site_type_symbol
 _atom_site_label
 _atom_site_symmetry_multiplicity
 _atom_site_fract_x
 _atom_site_fract_y
 _atom_site_fract_z
 _atom_site_fract_occupancy
 Cu  Cu1  1  0.00000  0.00000  0.00000  1
 O  O1  1  0.25000  0.75000  0.50000  1
 O  O2  1  0.75000  0.25000  0.50000  1
 O  O3  1  -0.00000  0.50000  0.00000  1
 O  O4  1  0.50000  -0.00000  -0.00000  1
 Sm  Sm1  1  0.64978  0.64978  0.29956  1
 Sm  Sm2  1  0.35022  0.35022  0.70044  1
