CIF file written using JARVIS-Tools package.
data_CaCu2Ge2
_symmetry_space_group_name_H-M  'I4/mmm'
_cell_length_a       4.15576
_cell_length_b       4.15576
_cell_length_c       5.90711
_cell_angle_alpha    110.595
_cell_angle_beta     110.595
_cell_angle_gamma    90

_symmetry_Int_Tables_number  139
_chemical_formula_structural  CaCu2Ge2
_chemical_formula_sum  CaCu2Ge2
_cell_volume  88.49913401945214
_cell_formula_units_Z  1
loop_
  _symmetry_equiv_pos_site_id
 _symmetry_equiv_pos_as_xyz
 1  'x, y, z'
loop_
 _atom_site_type_symbol
 _atom_site_label
 _atom_site_symmetry_multiplicity
 _atom_site_fract_x
 _atom_site_fract_y
 _atom_site_fract_z
 _atom_site_fract_occupancy
 Ca  Ca1  1  0.00000  0.00000  0.00000  1
 Cu  Cu1  1  0.75000  0.25000  0.50000  1
 Cu  Cu2  1  0.25000  0.75000  0.50000  1
 Ge  Ge1  1  0.37805  0.37805  0.75611  1
 Ge  Ge2  1  0.62195  0.62195  0.24389  1
