CIF file written using JARVIS-Tools package.
data_NbMoSe4
_symmetry_space_group_name_H-M  'P-6m2'
_cell_length_a       3.41675
_cell_length_b       3.41675
_cell_length_c       12.8761
_cell_angle_alpha    90
_cell_angle_beta     90
_cell_angle_gamma    120

_symmetry_Int_Tables_number  187
_chemical_formula_structural  NbMoSe4
_chemical_formula_sum  NbMoSe4
_cell_volume  130.17938230617747
_cell_formula_units_Z  1
loop_
  _symmetry_equiv_pos_site_id
 _symmetry_equiv_pos_as_xyz
 1  'x, y, z'
loop_
 _atom_site_type_symbol
 _atom_site_label
 _atom_site_symmetry_multiplicity
 _atom_site_fract_x
 _atom_site_fract_y
 _atom_site_fract_z
 _atom_site_fract_occupancy
 Mo  Mo1  1  0.66667  0.33333  0.50000  1
 Nb  Nb1  1  0.66667  0.33333  0.00000  1
 Se  Se1  1  0.33333  0.66667  0.62772  1
 Se  Se2  1  0.00000  0.00000  0.86692  1
 Se  Se3  1  0.00000  0.00000  0.13308  1
 Se  Se4  1  0.33333  0.66667  0.37228  1
