CIF file written using JARVIS-Tools package.
data_ThTa2O7
_symmetry_space_group_name_H-M  'C2/m'
_cell_length_a       3.91422
_cell_length_b       7.9921
_cell_length_c       8.42561
_cell_angle_alpha    95.8307
_cell_angle_beta     90
_cell_angle_gamma    104.175

_symmetry_Int_Tables_number  12
_chemical_formula_structural  ThTa2O7
_chemical_formula_sum  Th2Ta4O4
_cell_volume  254.14535297884143
_cell_formula_units_Z  2
loop_
  _symmetry_equiv_pos_site_id
 _symmetry_equiv_pos_as_xyz
 1  'x, y, z'
loop_
 _atom_site_type_symbol
 _atom_site_label
 _atom_site_symmetry_multiplicity
 _atom_site_fract_x
 _atom_site_fract_y
 _atom_site_fract_z
 _atom_site_fract_occupancy
 O  O1  1  0.19760  0.39520  0.83383  1
 O  O2  1  0.01246  0.02491  0.14111  1
 O  O3  1  0.94285  0.88570  0.39145  1
 O  O4  1  0.05715  0.11430  0.60855  1
 O  O5  1  0.60729  0.21459  0.93430  1
 O  O6  1  0.39271  0.78541  0.06570  1
 O  O7  1  0.41483  0.82965  0.61052  1
 O  O8  1  0.58517  0.17035  0.38948  1
 O  O9  1  0.98754  0.97509  0.85889  1
 O  O10  1  0.80452  0.60905  0.50297  1
 O  O11  1  0.80240  0.60480  0.16617  1
 O  O12  1  0.16846  0.33692  0.19328  1
 O  O13  1  0.83154  0.66308  0.80672  1
 O  O14  1  0.19548  0.39095  0.49703  1
 Ta  Ta1  1  0.89096  0.78192  0.01969  1
 Ta  Ta2  1  0.10904  0.21808  0.98031  1
 Ta  Ta3  1  0.92829  0.85658  0.63430  1
 Ta  Ta4  1  0.07171  0.14342  0.36570  1
 Th  Th1  1  0.68629  0.37259  0.66602  1
 Th  Th2  1  0.31371  0.62741  0.33398  1
