CIF file written using JARVIS-Tools package.
data_LiCuF2
_symmetry_space_group_name_H-M  'R-3m'
_cell_length_a       2.90128
_cell_length_b       2.90129
_cell_length_c       6.742
_cell_angle_alpha    64.5115
_cell_angle_beta     64.5115
_cell_angle_gamma    60.0001

_symmetry_Int_Tables_number  166
_chemical_formula_structural  LiCuF2
_chemical_formula_sum  LiCuF2
_cell_volume  42.65039260519245
_cell_formula_units_Z  1
loop_
  _symmetry_equiv_pos_site_id
 _symmetry_equiv_pos_as_xyz
 1  'x, y, z'
loop_
 _atom_site_type_symbol
 _atom_site_label
 _atom_site_symmetry_multiplicity
 _atom_site_fract_x
 _atom_site_fract_y
 _atom_site_fract_z
 _atom_site_fract_occupancy
 Cu  Cu1  1  0.00000  0.00000  0.00000  1
 F  F1  1  0.78951  0.78951  0.31574  1
 F  F2  1  0.21049  0.21049  0.68426  1
 Li  Li1  1  -0.00000  -0.00000  0.50000  1
