CIF file written using JARVIS-Tools package.
data_HgF
_symmetry_space_group_name_H-M  'I4/mmm'
_cell_length_a       3.71301
_cell_length_b       3.71301
_cell_length_c       6.11697
_cell_angle_alpha    107.668
_cell_angle_beta     107.668
_cell_angle_gamma    90

_symmetry_Int_Tables_number  139
_chemical_formula_structural  HgF
_chemical_formula_sum  Hg2F2
_cell_volume  76.168361055218
_cell_formula_units_Z  2
loop_
  _symmetry_equiv_pos_site_id
 _symmetry_equiv_pos_as_xyz
 1  'x, y, z'
loop_
 _atom_site_type_symbol
 _atom_site_label
 _atom_site_symmetry_multiplicity
 _atom_site_fract_x
 _atom_site_fract_y
 _atom_site_fract_z
 _atom_site_fract_occupancy
 F  F1  1  0.68650  0.68650  0.37300  1
 F  F2  1  0.31350  0.31350  0.62700  1
 Hg  Hg1  1  0.88400  0.88400  0.76800  1
 Hg  Hg2  1  0.11600  0.11600  0.23200  1
