CIF file written using JARVIS-Tools package.
data_Ag2S
_symmetry_space_group_name_H-M  'Cmce'
_cell_length_a       4.418
_cell_length_b       4.418
_cell_length_c       7.97352
_cell_angle_alpha    109.173
_cell_angle_beta     109.173
_cell_angle_gamma    114.034

_symmetry_Int_Tables_number  64
_chemical_formula_structural  Ag2S
_chemical_formula_sum  Ag4S2
_cell_volume  113.36132801159705
_cell_formula_units_Z  2
loop_
  _symmetry_equiv_pos_site_id
 _symmetry_equiv_pos_as_xyz
 1  'x, y, z'
loop_
 _atom_site_type_symbol
 _atom_site_label
 _atom_site_symmetry_multiplicity
 _atom_site_fract_x
 _atom_site_fract_y
 _atom_site_fract_z
 _atom_site_fract_occupancy
 Ag  Ag1  1  0.21223  0.54599  0.37911  1
 Ag  Ag2  1  0.54599  0.21223  0.87911  1
 Ag  Ag3  1  0.45401  0.78777  0.12089  1
 Ag  Ag4  1  0.78777  0.45401  0.62089  1
 S  S1  1  0.00000  -0.00000  0.50000  1
 S  S2  1  0.00000  0.00000  0.00000  1
