CIF file written using JARVIS-Tools package.
data_Sr3LiTa4O12F2
_symmetry_space_group_name_H-M  'R-3m'
_cell_length_a       7.43994
_cell_length_b       7.55404
_cell_length_c       7.55404
_cell_angle_alpha    60
_cell_angle_beta     59.4914
_cell_angle_gamma    59.4914

_symmetry_Int_Tables_number  166
_chemical_formula_structural  Sr3LiTa4O12F2
_chemical_formula_sum  Sr3LiTa4O2F2
_cell_volume  297.87301918186273
_cell_formula_units_Z  1
loop_
  _symmetry_equiv_pos_site_id
 _symmetry_equiv_pos_as_xyz
 1  'x, y, z'
loop_
 _atom_site_type_symbol
 _atom_site_label
 _atom_site_symmetry_multiplicity
 _atom_site_fract_x
 _atom_site_fract_y
 _atom_site_fract_z
 _atom_site_fract_occupancy
 F  F1  1  0.80486  0.73171  0.73171  1
 F  F2  1  0.44514  0.51829  0.51829  1
 Li  Li1  1  0.12500  0.62500  0.62500  1
 O  O1  1  0.45094  0.05072  0.44762  1
 O  O2  1  0.45094  0.05072  0.05072  1
 O  O3  1  0.79906  0.19928  0.19928  1
 O  O4  1  0.05939  0.06339  0.43861  1
 O  O5  1  0.45094  0.44762  0.05072  1
 O  O6  1  0.05939  0.43861  0.06339  1
 O  O7  1  0.05939  0.43861  0.43861  1
 O  O8  1  0.19061  0.18661  0.81139  1
 O  O9  1  0.19061  0.81139  0.18661  1
 O  O10  1  0.79906  0.80238  0.19928  1
 O  O11  1  0.19061  0.81139  0.81139  1
 O  O12  1  0.79906  0.19928  0.80238  1
 Sr  Sr1  1  0.62500  0.62500  0.62500  1
 Sr  Sr2  1  0.62500  0.12500  0.62500  1
 Sr  Sr3  1  0.62500  0.62500  0.12500  1
 Ta  Ta1  1  0.12500  0.12500  0.62500  1
 Ta  Ta2  1  0.12500  0.62500  0.12500  1
 Ta  Ta3  1  0.62500  0.12500  0.12500  1
 Ta  Ta4  1  0.12500  0.12500  0.12500  1
