CIF file written using JARVIS-Tools package.
data_CeGeBi2
_symmetry_space_group_name_H-M  'I4/mmm'
_cell_length_a       10.7299
_cell_length_b       10.7299
_cell_length_c       10.7299
_cell_angle_alpha    155.03
_cell_angle_beta     155.03
_cell_angle_gamma    35.6047

_symmetry_Int_Tables_number  139
_chemical_formula_structural  CeGeBi2
_chemical_formula_sum  Ce2Ge2Bi4
_cell_volume  219.88463117358648
_cell_formula_units_Z  2
loop_
  _symmetry_equiv_pos_site_id
 _symmetry_equiv_pos_as_xyz
 1  'x, y, z'
loop_
 _atom_site_type_symbol
 _atom_site_label
 _atom_site_symmetry_multiplicity
 _atom_site_fract_x
 _atom_site_fract_y
 _atom_site_fract_z
 _atom_site_fract_occupancy
 Bi  Bi1  1  0.75000  0.25000  0.50000  1
 Bi  Bi2  1  0.25000  0.75000  0.50000  1
 Bi  Bi3  1  0.50000  -0.00000  0.50000  1
 Bi  Bi4  1  0.00000  0.50000  0.50000  1
 Ce  Ce1  1  0.12121  0.12121  -0.00000  1
 Ce  Ce2  1  0.87879  0.87879  0.00000  1
 Ge  Ge1  1  0.38122  0.38122  -0.00000  1
 Ge  Ge2  1  0.61878  0.61878  0.00000  1
