CIF file written using JARVIS-Tools package.
data_KAuSe2
_symmetry_space_group_name_H-M  'P4/mbm'
_cell_length_a       7.6778
_cell_length_b       7.6778
_cell_length_c       3.72607
_cell_angle_alpha    90
_cell_angle_beta     90
_cell_angle_gamma    90

_symmetry_Int_Tables_number  127
_chemical_formula_structural  KAuSe2
_chemical_formula_sum  K2Au2Se4
_cell_volume  219.64700468093085
_cell_formula_units_Z  2
loop_
  _symmetry_equiv_pos_site_id
 _symmetry_equiv_pos_as_xyz
 1  'x, y, z'
loop_
 _atom_site_type_symbol
 _atom_site_label
 _atom_site_symmetry_multiplicity
 _atom_site_fract_x
 _atom_site_fract_y
 _atom_site_fract_z
 _atom_site_fract_occupancy
 Au  Au1  1  0.50000  0.00000  0.00000  1
 Au  Au2  1  0.00000  0.50000  0.00000  1
 K  K1  1  0.50000  0.50000  0.00000  1
 K  K2  1  0.00000  0.00000  0.00000  1
 Se  Se1  1  0.15596  0.34404  0.50000  1
 Se  Se2  1  0.34404  0.84404  0.50000  1
 Se  Se3  1  0.65596  0.15596  0.50000  1
 Se  Se4  1  0.84404  0.65596  0.50000  1
