CIF file written using JARVIS-Tools package.
data_NaH2Pd3
_symmetry_space_group_name_H-M  'Cmmm'
_cell_length_a       5.18151
_cell_length_b       5.18151
_cell_length_c       2.8396
_cell_angle_alpha    90
_cell_angle_beta     90
_cell_angle_gamma    66.7154

_symmetry_Int_Tables_number  65
_chemical_formula_structural  NaH2Pd3
_chemical_formula_sum  NaH2Pd3
_cell_volume  70.02850747868824
_cell_formula_units_Z  1
loop_
  _symmetry_equiv_pos_site_id
 _symmetry_equiv_pos_as_xyz
 1  'x, y, z'
loop_
 _atom_site_type_symbol
 _atom_site_label
 _atom_site_symmetry_multiplicity
 _atom_site_fract_x
 _atom_site_fract_y
 _atom_site_fract_z
 _atom_site_fract_occupancy
 H  H1  1  0.78492  0.78492  0.00000  1
 H  H2  1  0.21508  0.21508  0.00000  1
 Na  Na1  1  0.50000  0.50000  0.00000  1
 Pd  Pd1  1  0.00000  0.00000  0.00000  1
 Pd  Pd2  1  -0.00000  0.50000  0.50000  1
 Pd  Pd3  1  0.50000  -0.00000  0.50000  1
