CIF file written using JARVIS-Tools package.
data_KAsF6
_symmetry_space_group_name_H-M  'R-3'
_cell_length_a       4.8306
_cell_length_b       4.8306
_cell_length_c       4.8306
_cell_angle_alpha    97.7611
_cell_angle_beta     97.7611
_cell_angle_gamma    97.7612

_symmetry_Int_Tables_number  148
_chemical_formula_structural  KAsF6
_chemical_formula_sum  KAsF6
_cell_volume  109.30758130843604
_cell_formula_units_Z  1
loop_
  _symmetry_equiv_pos_site_id
 _symmetry_equiv_pos_as_xyz
 1  'x, y, z'
loop_
 _atom_site_type_symbol
 _atom_site_label
 _atom_site_symmetry_multiplicity
 _atom_site_fract_x
 _atom_site_fract_y
 _atom_site_fract_z
 _atom_site_fract_occupancy
 As  As1  1  0.00000  0.00000  0.00000  1
 F  F1  1  0.78866  0.07615  0.69829  1
 F  F2  1  0.07615  0.69829  0.78866  1
 F  F3  1  0.30171  0.21134  0.92385  1
 F  F4  1  0.92385  0.30171  0.21134  1
 F  F5  1  0.21134  0.92385  0.30171  1
 F  F6  1  0.69829  0.78866  0.07615  1
 K  K1  1  0.50000  0.50000  0.50000  1
