CIF file written using JARVIS-Tools package.
data_TlFeO2
_symmetry_space_group_name_H-M  'R-3m'
_cell_length_a       5.83764
_cell_length_b       5.83764
_cell_length_c       5.83764
_cell_angle_alpha    59.93
_cell_angle_beta     59.9301
_cell_angle_gamma    59.9301

_symmetry_Int_Tables_number  166
_chemical_formula_structural  TlFeO2
_chemical_formula_sum  Tl2Fe2O4
_cell_volume  140.44554079502535
_cell_formula_units_Z  2
loop_
  _symmetry_equiv_pos_site_id
 _symmetry_equiv_pos_as_xyz
 1  'x, y, z'
loop_
 _atom_site_type_symbol
 _atom_site_label
 _atom_site_symmetry_multiplicity
 _atom_site_fract_x
 _atom_site_fract_y
 _atom_site_fract_z
 _atom_site_fract_occupancy
 Fe  Fe1  1  0.62488  0.62488  0.62488  1
 Fe  Fe2  1  0.37512  0.37512  0.37512  1
 O  O1  1  0.50000  0.00000  0.50000  1
 O  O2  1  0.00000  0.50000  0.50000  1
 O  O3  1  0.50000  0.50000  1.00000  1
 O  O4  1  0.50000  0.50000  0.50000  1
 Tl  Tl1  1  0.87530  0.87531  0.87531  1
 Tl  Tl2  1  0.12469  0.12469  0.12470  1
