CIF file written using JARVIS-Tools package.
data_NaMnO2
_symmetry_space_group_name_H-M  'Pmmn'
_cell_length_a       2.87509
_cell_length_b       4.8588
_cell_length_c       6.31958
_cell_angle_alpha    90
_cell_angle_beta     90
_cell_angle_gamma    90

_symmetry_Int_Tables_number  59
_chemical_formula_structural  NaMnO2
_chemical_formula_sum  Na2Mn2O4
_cell_volume  88.28129821677287
_cell_formula_units_Z  2
loop_
  _symmetry_equiv_pos_site_id
 _symmetry_equiv_pos_as_xyz
 1  'x, y, z'
loop_
 _atom_site_type_symbol
 _atom_site_label
 _atom_site_symmetry_multiplicity
 _atom_site_fract_x
 _atom_site_fract_y
 _atom_site_fract_z
 _atom_site_fract_occupancy
 Mn  Mn1  1  0.50000  0.00000  0.62589  1
 Mn  Mn2  1  0.00000  0.50000  0.37411  1
 Na  Na1  1  0.50000  0.00000  0.12480  1
 Na  Na2  1  0.00000  0.50000  0.87520  1
 O  O1  1  0.00000  0.00000  0.41861  1
 O  O2  1  0.50000  0.50000  0.58139  1
 O  O3  1  0.00000  0.00000  0.82971  1
 O  O4  1  0.50000  0.50000  0.17029  1
