CIF file written using JARVIS-Tools package.
data_Nd5Fe2B6
_symmetry_space_group_name_H-M  'R-3m'
_cell_length_a       8.69045
_cell_length_b       8.69045
_cell_length_c       8.69045
_cell_angle_alpha    36.7262
_cell_angle_beta     36.7262
_cell_angle_gamma    36.7261

_symmetry_Int_Tables_number  166
_chemical_formula_structural  Nd5Fe2B6
_chemical_formula_sum  Nd5Fe2B6
_cell_volume  210.19343039308035
_cell_formula_units_Z  1
loop_
  _symmetry_equiv_pos_site_id
 _symmetry_equiv_pos_as_xyz
 1  'x, y, z'
loop_
 _atom_site_type_symbol
 _atom_site_label
 _atom_site_symmetry_multiplicity
 _atom_site_fract_x
 _atom_site_fract_y
 _atom_site_fract_z
 _atom_site_fract_occupancy
 B  B1  1  0.83358  0.50000  0.16642  1
 B  B2  1  0.50000  0.16642  0.83358  1
 B  B3  1  0.16642  0.83358  0.50000  1
 B  B4  1  0.16642  0.50000  0.83358  1
 B  B5  1  0.50000  0.83358  0.16642  1
 B  B6  1  0.83358  0.16642  0.50000  1
 Fe  Fe1  1  0.87890  0.87890  0.87890  1
 Fe  Fe2  1  0.12110  0.12110  0.12110  1
 Nd  Nd1  1  0.58392  0.58392  0.58392  1
 Nd  Nd2  1  0.41608  0.41608  0.41608  1
 Nd  Nd3  1  0.74809  0.74809  0.74809  1
 Nd  Nd4  1  0.25191  0.25191  0.25191  1
 Nd  Nd5  1  0.00000  0.00000  0.00000  1
