CIF file written using JARVIS-Tools package.
data_NaNbO3
_symmetry_space_group_name_H-M  'P4/mbm'
_cell_length_a       5.54051
_cell_length_b       5.54051
_cell_length_c       4.01906
_cell_angle_alpha    90
_cell_angle_beta     90
_cell_angle_gamma    90

_symmetry_Int_Tables_number  127
_chemical_formula_structural  NaNbO3
_chemical_formula_sum  Na2Nb2O6
_cell_volume  123.37418485824942
_cell_formula_units_Z  2
loop_
  _symmetry_equiv_pos_site_id
 _symmetry_equiv_pos_as_xyz
 1  'x, y, z'
loop_
 _atom_site_type_symbol
 _atom_site_label
 _atom_site_symmetry_multiplicity
 _atom_site_fract_x
 _atom_site_fract_y
 _atom_site_fract_z
 _atom_site_fract_occupancy
 Na  Na1  1  0.00000  0.50000  0.50000  1
 Na  Na2  1  0.50000  0.00000  0.50000  1
 Nb  Nb1  1  0.50000  0.50000  0.00000  1
 Nb  Nb2  1  0.00000  0.00000  0.00000  1
 O  O1  1  0.80822  0.69178  0.00000  1
 O  O2  1  0.69178  0.19178  0.00000  1
 O  O3  1  0.30822  0.80822  0.00000  1
 O  O4  1  0.19178  0.30822  0.00000  1
 O  O5  1  0.00000  0.00000  0.50000  1
 O  O6  1  0.50000  0.50000  0.50000  1
