CIF file written using JARVIS-Tools package.
data_SmZn3P3
_symmetry_space_group_name_H-M  'P6_3/mmc'
_cell_length_a       4.03355
_cell_length_b       4.03355
_cell_length_c       20.0415
_cell_angle_alpha    90
_cell_angle_beta     90
_cell_angle_gamma    120

_symmetry_Int_Tables_number  194
_chemical_formula_structural  SmZn3P3
_chemical_formula_sum  Sm2Zn6P6
_cell_volume  282.3816034454125
_cell_formula_units_Z  2
loop_
  _symmetry_equiv_pos_site_id
 _symmetry_equiv_pos_as_xyz
 1  'x, y, z'
loop_
 _atom_site_type_symbol
 _atom_site_label
 _atom_site_symmetry_multiplicity
 _atom_site_fract_x
 _atom_site_fract_y
 _atom_site_fract_z
 _atom_site_fract_occupancy
 P  P1  1  0.66667  0.33333  0.25000  1
 P  P2  1  0.33333  0.66667  0.75000  1
 P  P3  1  0.33333  0.66667  0.41427  1
 P  P4  1  0.66667  0.33333  0.91427  1
 P  P5  1  0.66667  0.33333  0.58573  1
 P  P6  1  0.33333  0.66667  0.08573  1
 Sm  Sm1  1  0.00000  0.00000  0.50000  1
 Sm  Sm2  1  0.00000  0.00000  0.00000  1
 Zn  Zn1  1  0.66667  0.33333  0.75000  1
 Zn  Zn2  1  0.33333  0.66667  0.25000  1
 Zn  Zn3  1  0.66667  0.33333  0.37128  1
 Zn  Zn4  1  0.33333  0.66667  0.87128  1
 Zn  Zn5  1  0.33333  0.66667  0.62872  1
 Zn  Zn6  1  0.66667  0.33333  0.12872  1
