CIF file written using JARVIS-Tools package.
data_MnS2
_symmetry_space_group_name_H-M  'R-3m'
_cell_length_a       6.44188
_cell_length_b       6.44188
_cell_length_c       6.44187
_cell_angle_alpha    29.8617
_cell_angle_beta     29.8617
_cell_angle_gamma    29.8617

_symmetry_Int_Tables_number  166
_chemical_formula_structural  MnS2
_chemical_formula_sum  MnS2
_cell_volume  58.69116356127142
_cell_formula_units_Z  1
loop_
  _symmetry_equiv_pos_site_id
 _symmetry_equiv_pos_as_xyz
 1  'x, y, z'
loop_
 _atom_site_type_symbol
 _atom_site_label
 _atom_site_symmetry_multiplicity
 _atom_site_fract_x
 _atom_site_fract_y
 _atom_site_fract_z
 _atom_site_fract_occupancy
 Mn  Mn1  1  0.00000  0.00000  0.00000  1
 S  S1  1  0.59436  0.59436  0.59436  1
 S  S2  1  0.40564  0.40564  0.40564  1
