CIF file written using JARVIS-Tools package.
data_BaCu
_symmetry_space_group_name_H-M  'P6_3/mmc'
_cell_length_a       4.47992
_cell_length_b       4.47992
_cell_length_c       16.2299
_cell_angle_alpha    90
_cell_angle_beta     90
_cell_angle_gamma    120

_symmetry_Int_Tables_number  194
_chemical_formula_structural  BaCu
_chemical_formula_sum  Ba4Cu4
_cell_volume  282.0899069385576
_cell_formula_units_Z  4
loop_
  _symmetry_equiv_pos_site_id
 _symmetry_equiv_pos_as_xyz
 1  'x, y, z'
loop_
 _atom_site_type_symbol
 _atom_site_label
 _atom_site_symmetry_multiplicity
 _atom_site_fract_x
 _atom_site_fract_y
 _atom_site_fract_z
 _atom_site_fract_occupancy
 Ba  Ba1  1  0.33333  0.66667  0.87834  1
 Ba  Ba2  1  0.66667  0.33333  0.37834  1
 Ba  Ba3  1  0.66667  0.33333  0.12166  1
 Ba  Ba4  1  0.33333  0.66667  0.62166  1
 Cu  Cu1  1  0.00000  0.00000  0.75000  1
 Cu  Cu2  1  0.00000  0.00000  0.25000  1
 Cu  Cu3  1  0.33333  0.66667  0.25000  1
 Cu  Cu4  1  0.66667  0.33333  0.75000  1
