CIF file written using JARVIS-Tools package.
data_HCN
_symmetry_space_group_name_H-M  'I4mm'
_cell_length_a       3.68365
_cell_length_b       3.68365
_cell_length_c       3.68365
_cell_angle_alpha    109.82
_cell_angle_beta     109.82
_cell_angle_gamma    108.776

_symmetry_Int_Tables_number  107
_chemical_formula_structural  HCN
_chemical_formula_sum  HCN
_cell_volume  38.47401323255422
_cell_formula_units_Z  1
loop_
  _symmetry_equiv_pos_site_id
 _symmetry_equiv_pos_as_xyz
 1  'x, y, z'
loop_
 _atom_site_type_symbol
 _atom_site_label
 _atom_site_symmetry_multiplicity
 _atom_site_fract_x
 _atom_site_fract_y
 _atom_site_fract_z
 _atom_site_fract_occupancy
 C  C1  1  0.00403  0.00403  -0.00000  1
 H  H1  1  0.74975  0.74975  0.00000  1
 N  N1  1  0.27392  0.27392  0.00000  1
