CIF file written using JARVIS-Tools package.
data_CaCoF6
_symmetry_space_group_name_H-M  'R-3'
_cell_length_a       5.53482
_cell_length_b       5.53482
_cell_length_c       5.53482
_cell_angle_alpha    54.2008
_cell_angle_beta     54.2008
_cell_angle_gamma    54.2008

_symmetry_Int_Tables_number  148
_chemical_formula_structural  CaCoF6
_chemical_formula_sum  CaCoF6
_cell_volume  103.6653631598933
_cell_formula_units_Z  1
loop_
  _symmetry_equiv_pos_site_id
 _symmetry_equiv_pos_as_xyz
 1  'x, y, z'
loop_
 _atom_site_type_symbol
 _atom_site_label
 _atom_site_symmetry_multiplicity
 _atom_site_fract_x
 _atom_site_fract_y
 _atom_site_fract_z
 _atom_site_fract_occupancy
 Ca  Ca1  1  0.50000  0.50000  0.50000  1
 Co  Co1  1  0.00000  0.00000  0.00000  1
 F  F1  1  0.37736  0.05001  0.79554  1
 F  F2  1  0.05001  0.79554  0.37736  1
 F  F3  1  0.20446  0.62264  0.94999  1
 F  F4  1  0.94999  0.20446  0.62264  1
 F  F5  1  0.62264  0.94999  0.20446  1
 F  F6  1  0.79554  0.37736  0.05001  1
