CIF file written using JARVIS-Tools package.
data_BaY2PdO5
_symmetry_space_group_name_H-M  'P4/mbm'
_cell_length_a       6.55582
_cell_length_b       6.55582
_cell_length_c       5.89531
_cell_angle_alpha    90
_cell_angle_beta     90
_cell_angle_gamma    90

_symmetry_Int_Tables_number  127
_chemical_formula_structural  BaY2PdO5
_chemical_formula_sum  Ba2Y4Pd2O0
_cell_volume  253.3733400151178
_cell_formula_units_Z  2
loop_
  _symmetry_equiv_pos_site_id
 _symmetry_equiv_pos_as_xyz
 1  'x, y, z'
loop_
 _atom_site_type_symbol
 _atom_site_label
 _atom_site_symmetry_multiplicity
 _atom_site_fract_x
 _atom_site_fract_y
 _atom_site_fract_z
 _atom_site_fract_occupancy
 Ba  Ba1  1  0.50000  0.50000  0.00000  1
 Ba  Ba2  1  0.00000  0.00000  0.00000  1
 O  O1  1  0.14051  0.35949  0.25954  1
 O  O2  1  0.00000  0.00000  0.50000  1
 O  O3  1  0.14051  0.35949  0.74046  1
 O  O4  1  0.50000  0.50000  0.50000  1
 O  O5  1  0.64051  0.14051  0.74046  1
 O  O6  1  0.35949  0.85949  0.74046  1
 O  O7  1  0.85949  0.64051  0.25954  1
 O  O8  1  0.64051  0.14051  0.25954  1
 O  O9  1  0.85949  0.64051  0.74046  1
 O  O10  1  0.35949  0.85949  0.25954  1
 Pd  Pd1  1  0.00000  0.50000  0.00000  1
 Pd  Pd2  1  0.50000  0.00000  0.00000  1
 Y  Y1  1  0.32663  0.17337  0.50000  1
 Y  Y2  1  0.17337  0.67337  0.50000  1
 Y  Y3  1  0.82663  0.32663  0.50000  1
 Y  Y4  1  0.67337  0.82663  0.50000  1
