CIF file written using JARVIS-Tools package.
data_Li2FeBr4
_symmetry_space_group_name_H-M  'Cmmm'
_cell_length_a       3.77753
_cell_length_b       6.6491
_cell_length_c       6.6491
_cell_angle_alpha    109.468
_cell_angle_beta     90
_cell_angle_gamma    90

_symmetry_Int_Tables_number  65
_chemical_formula_structural  Li2FeBr4
_chemical_formula_sum  Li2FeBr4
_cell_volume  157.4586114393842
_cell_formula_units_Z  1
loop_
  _symmetry_equiv_pos_site_id
 _symmetry_equiv_pos_as_xyz
 1  'x, y, z'
loop_
 _atom_site_type_symbol
 _atom_site_label
 _atom_site_symmetry_multiplicity
 _atom_site_fract_x
 _atom_site_fract_y
 _atom_site_fract_z
 _atom_site_fract_occupancy
 Br  Br1  1  0.50000  0.23946  0.23946  1
 Br  Br2  1  0.50000  0.76054  0.76054  1
 Br  Br3  1  0.00000  0.24266  0.75734  1
 Br  Br4  1  0.00000  0.75734  0.24266  1
 Fe  Fe1  1  0.00000  0.00000  0.00000  1
 Li  Li1  1  0.50000  -0.00000  0.50000  1
 Li  Li2  1  0.50000  0.50000  0.00000  1
