CIF file written using JARVIS-Tools package.
data_LuBrO
_symmetry_space_group_name_H-M  'P4/nmm'
_cell_length_a       3.74378
_cell_length_b       3.74378
_cell_length_c       8.34316
_cell_angle_alpha    90
_cell_angle_beta     90
_cell_angle_gamma    90

_symmetry_Int_Tables_number  129
_chemical_formula_structural  LuBrO
_chemical_formula_sum  Lu2Br2O2
_cell_volume  116.9369803177427
_cell_formula_units_Z  2
loop_
  _symmetry_equiv_pos_site_id
 _symmetry_equiv_pos_as_xyz
 1  'x, y, z'
loop_
 _atom_site_type_symbol
 _atom_site_label
 _atom_site_symmetry_multiplicity
 _atom_site_fract_x
 _atom_site_fract_y
 _atom_site_fract_z
 _atom_site_fract_occupancy
 Br  Br1  1  0.25000  0.25000  0.17116  1
 Br  Br2  1  0.75000  0.75000  0.82884  1
 Lu  Lu1  1  0.75000  0.75000  0.36823  1
 Lu  Lu2  1  0.25000  0.25000  0.63177  1
 O  O1  1  0.75000  0.25000  0.50000  1
 O  O2  1  0.25000  0.75000  0.50000  1
