CIF file written using JARVIS-Tools package.
data_Cd4B6O13
_symmetry_space_group_name_H-M  'I-43m'
_cell_length_a       6.80696
_cell_length_b       6.80696
_cell_length_c       6.80696
_cell_angle_alpha    109.471
_cell_angle_beta     109.471
_cell_angle_gamma    109.471

_symmetry_Int_Tables_number  217
_chemical_formula_structural  Cd4B6O13
_chemical_formula_sum  Cd4B6O3
_cell_volume  242.79310432698125
_cell_formula_units_Z  1
loop_
  _symmetry_equiv_pos_site_id
 _symmetry_equiv_pos_as_xyz
 1  'x, y, z'
loop_
 _atom_site_type_symbol
 _atom_site_label
 _atom_site_symmetry_multiplicity
 _atom_site_fract_x
 _atom_site_fract_y
 _atom_site_fract_z
 _atom_site_fract_occupancy
 B  B1  1  0.75000  0.50000  0.25000  1
 B  B2  1  0.75000  0.25000  0.50000  1
 B  B3  1  0.50000  0.25000  0.75000  1
 B  B4  1  0.50000  0.75000  0.25000  1
 B  B5  1  0.25000  0.75000  0.50000  1
 B  B6  1  0.25000  0.50000  0.75000  1
 Cd  Cd1  1  0.68322  -0.00000  -0.00000  1
 Cd  Cd2  1  0.31678  0.31678  0.31678  1
 Cd  Cd3  1  -0.00000  0.68322  0.00000  1
 Cd  Cd4  1  0.00000  0.00000  0.68322  1
 O  O1  1  0.70696  0.00000  0.41521  1
 O  O2  1  0.00000  0.70696  0.41521  1
 O  O3  1  0.70825  0.29304  0.29304  1
 O  O4  1  0.00000  0.00000  0.00000  1
 O  O5  1  0.41521  0.70696  -0.00000  1
 O  O6  1  0.29304  0.70825  0.29304  1
 O  O7  1  0.58479  0.29175  0.58479  1
 O  O8  1  0.58479  0.58479  0.29175  1
 O  O9  1  0.29304  0.29304  0.70825  1
 O  O10  1  0.41521  -0.00000  0.70696  1
 O  O11  1  0.29175  0.58479  0.58479  1
 O  O12  1  0.70696  0.41521  0.00000  1
 O  O13  1  -0.00000  0.41521  0.70696  1
