CIF file written using JARVIS-Tools package.
data_K2NaAs
_symmetry_space_group_name_H-M  'P6_3/mmc'
_cell_length_a       5.3261
_cell_length_b       5.3261
_cell_length_c       10.4597
_cell_angle_alpha    90
_cell_angle_beta     90
_cell_angle_gamma    120

_symmetry_Int_Tables_number  194
_chemical_formula_structural  K2NaAs
_chemical_formula_sum  K4Na2As2
_cell_volume  256.96290345599147
_cell_formula_units_Z  2
loop_
  _symmetry_equiv_pos_site_id
 _symmetry_equiv_pos_as_xyz
 1  'x, y, z'
loop_
 _atom_site_type_symbol
 _atom_site_label
 _atom_site_symmetry_multiplicity
 _atom_site_fract_x
 _atom_site_fract_y
 _atom_site_fract_z
 _atom_site_fract_occupancy
 As  As1  1  0.33333  0.66667  0.75000  1
 As  As2  1  0.66667  0.33333  0.25000  1
 K  K1  1  0.33333  0.66667  0.08491  1
 K  K2  1  0.33333  0.66667  0.41509  1
 K  K3  1  0.66667  0.33333  0.58491  1
 K  K4  1  0.66667  0.33333  0.91509  1
 Na  Na1  1  0.00000  0.00000  0.25000  1
 Na  Na2  1  0.00000  0.00000  0.75000  1
