CIF file written using JARVIS-Tools package.
data_Sr2GaSbO6
_symmetry_space_group_name_H-M  'I4/m'
_cell_length_a       5.57188
_cell_length_b       5.57188
_cell_length_c       5.64457
_cell_angle_alpha    119.575
_cell_angle_beta     119.575
_cell_angle_gamma    90

_symmetry_Int_Tables_number  87
_chemical_formula_structural  Sr2GaSbO6
_chemical_formula_sum  Sr2GaSbO6
_cell_volume  125.48906517886418
_cell_formula_units_Z  1
loop_
  _symmetry_equiv_pos_site_id
 _symmetry_equiv_pos_as_xyz
 1  'x, y, z'
loop_
 _atom_site_type_symbol
 _atom_site_label
 _atom_site_symmetry_multiplicity
 _atom_site_fract_x
 _atom_site_fract_y
 _atom_site_fract_z
 _atom_site_fract_occupancy
 Ga  Ga1  1  0.00000  0.00000  0.00000  1
 O  O1  1  0.79288  0.70849  -0.00000  1
 O  O2  1  0.29151  0.79288  -0.00000  1
 O  O3  1  0.70849  0.20712  0.00000  1
 O  O4  1  0.20712  0.29151  0.00000  1
 O  O5  1  0.25166  0.25166  0.50332  1
 O  O6  1  0.74834  0.74834  0.49668  1
 Sb  Sb1  1  0.50000  0.50000  0.00000  1
 Sr  Sr1  1  0.25000  0.75000  0.50000  1
 Sr  Sr2  1  0.75000  0.25000  0.50000  1
