CIF file written using JARVIS-Tools package.
data_CuBrO2
_symmetry_space_group_name_H-M  'C2/m'
_cell_length_a       3.02101
_cell_length_b       3.41039
_cell_length_c       6.10672
_cell_angle_alpha    101.182
_cell_angle_beta     90
_cell_angle_gamma    116.29

_symmetry_Int_Tables_number  12
_chemical_formula_structural  CuBrO2
_chemical_formula_sum  CuBrO2
_cell_volume  55.0734106438274
_cell_formula_units_Z  1
loop_
  _symmetry_equiv_pos_site_id
 _symmetry_equiv_pos_as_xyz
 1  'x, y, z'
loop_
 _atom_site_type_symbol
 _atom_site_label
 _atom_site_symmetry_multiplicity
 _atom_site_fract_x
 _atom_site_fract_y
 _atom_site_fract_z
 _atom_site_fract_occupancy
 Br  Br1  1  -0.00000  0.00000  0.50000  1
 Cu  Cu1  1  0.50000  0.00000  0.00000  1
 O  O1  1  0.08888  0.17775  0.83608  1
 O  O2  1  0.91112  0.82225  0.16392  1
