CIF file written using JARVIS-Tools package.
data_Mn4Cu3O12
_symmetry_space_group_name_H-M  'Im-3'
_cell_length_a       6.18356
_cell_length_b       6.18351
_cell_length_c       6.18355
_cell_angle_alpha    109.471
_cell_angle_beta     109.471
_cell_angle_gamma    109.471

_symmetry_Int_Tables_number  204
_chemical_formula_structural  Mn4Cu3O12
_chemical_formula_sum  Mn4Cu3O2
_cell_volume  182.00757303971668
_cell_formula_units_Z  1
loop_
  _symmetry_equiv_pos_site_id
 _symmetry_equiv_pos_as_xyz
 1  'x, y, z'
loop_
 _atom_site_type_symbol
 _atom_site_label
 _atom_site_symmetry_multiplicity
 _atom_site_fract_x
 _atom_site_fract_y
 _atom_site_fract_z
 _atom_site_fract_occupancy
 Cu  Cu1  1  0.50000  0.50000  0.00000  1
 Cu  Cu2  1  0.00000  0.50000  0.50000  1
 Cu  Cu3  1  0.50000  0.00000  0.50000  1
 Mn  Mn1  1  -0.00000  0.00000  0.50000  1
 Mn  Mn2  1  -0.00000  0.50000  0.00000  1
 Mn  Mn3  1  0.50000  0.50000  0.50000  1
 Mn  Mn4  1  0.50000  0.00000  0.00000  1
 O  O1  1  0.50626  0.81631  0.68996  1
 O  O2  1  0.12635  0.81629  0.31006  1
 O  O3  1  0.81630  0.68995  0.50625  1
 O  O4  1  0.18370  0.31005  0.49375  1
 O  O5  1  0.87365  0.18371  0.68994  1
 O  O6  1  0.68996  0.87365  0.18370  1
 O  O7  1  0.81629  0.31006  0.12635  1
 O  O8  1  0.31007  0.49378  0.18372  1
 O  O9  1  0.49374  0.18369  0.31004  1
 O  O10  1  0.18371  0.68994  0.87365  1
 O  O11  1  0.68993  0.50622  0.81628  1
 O  O12  1  0.31004  0.12635  0.81630  1
