CIF file written using JARVIS-Tools package.
data_NaTl2In
_symmetry_space_group_name_H-M  'Immm'
_cell_length_a       12.0048
_cell_length_b       12.8041
_cell_length_c       12.8041
_cell_angle_alpha    61.498
_cell_angle_beta     62.0575
_cell_angle_gamma    62.0575

_symmetry_Int_Tables_number  71
_chemical_formula_structural  NaTl2In
_chemical_formula_sum  NaTl2In
_cell_volume  1449.8849527723655
_cell_formula_units_Z  1
loop_
  _symmetry_equiv_pos_site_id
 _symmetry_equiv_pos_as_xyz
 1  'x, y, z'
loop_
 _atom_site_type_symbol
 _atom_site_label
 _atom_site_symmetry_multiplicity
 _atom_site_fract_x
 _atom_site_fract_y
 _atom_site_fract_z
 _atom_site_fract_occupancy
 In  In1  1  0.50000  0.00000  -0.00000  1
 Na  Na1  1  0.00000  0.00000  0.00000  1
 Tl  Tl1  1  0.73947  0.00000  0.00000  1
 Tl  Tl2  1  0.26053  -0.00000  -0.00000  1
