CIF file written using JARVIS-Tools package.
data_MoSe2
_symmetry_space_group_name_H-M  'P6_3/mmc'
_cell_length_a       3.32876
_cell_length_b       3.32876
_cell_length_c       13.1699
_cell_angle_alpha    90
_cell_angle_beta     90
_cell_angle_gamma    120

_symmetry_Int_Tables_number  194
_chemical_formula_structural  MoSe2
_chemical_formula_sum  Mo2Se4
_cell_volume  126.37922582343344
_cell_formula_units_Z  2
loop_
  _symmetry_equiv_pos_site_id
 _symmetry_equiv_pos_as_xyz
 1  'x, y, z'
loop_
 _atom_site_type_symbol
 _atom_site_label
 _atom_site_symmetry_multiplicity
 _atom_site_fract_x
 _atom_site_fract_y
 _atom_site_fract_z
 _atom_site_fract_occupancy
 Mo  Mo1  1  0.66667  0.33333  0.75000  1
 Mo  Mo2  1  0.33333  0.66667  0.25000  1
 Se  Se1  1  0.33333  0.66667  0.87704  1
 Se  Se2  1  0.66667  0.33333  0.37704  1
 Se  Se3  1  0.33333  0.66667  0.62296  1
 Se  Se4  1  0.66667  0.33333  0.12296  1
