CIF file written using JARVIS-Tools package.
data_RbP
_symmetry_space_group_name_H-M  'Fm-3m'
_cell_length_a       4.89836
_cell_length_b       4.90069
_cell_length_c       4.9037
_cell_angle_alpha    60.0487
_cell_angle_beta     60.036
_cell_angle_gamma    60.0157

_symmetry_Int_Tables_number  225
_chemical_formula_structural  RbP
_chemical_formula_sum  RbP
_cell_volume  83.30029490106801
_cell_formula_units_Z  1
loop_
  _symmetry_equiv_pos_site_id
 _symmetry_equiv_pos_as_xyz
 1  'x, y, z'
loop_
 _atom_site_type_symbol
 _atom_site_label
 _atom_site_symmetry_multiplicity
 _atom_site_fract_x
 _atom_site_fract_y
 _atom_site_fract_z
 _atom_site_fract_occupancy
 P  P1  1  0.50000  0.50000  0.50000  1
 Rb  Rb1  1  0.00000  0.00000  0.00000  1
