CIF file written using JARVIS-Tools package.
data_KBaAu2
_symmetry_space_group_name_H-M  'Immm'
_cell_length_a       12.502
_cell_length_b       13.0183
_cell_length_c       13.0183
_cell_angle_alpha    60.8323
_cell_angle_beta     61.3035
_cell_angle_gamma    61.3035

_symmetry_Int_Tables_number  71
_chemical_formula_structural  KBaAu2
_chemical_formula_sum  KBaAu2
_cell_volume  1536.7811535491198
_cell_formula_units_Z  1
loop_
  _symmetry_equiv_pos_site_id
 _symmetry_equiv_pos_as_xyz
 1  'x, y, z'
loop_
 _atom_site_type_symbol
 _atom_site_label
 _atom_site_symmetry_multiplicity
 _atom_site_fract_x
 _atom_site_fract_y
 _atom_site_fract_z
 _atom_site_fract_occupancy
 Au  Au1  1  0.74856  -0.00000  0.00000  1
 Au  Au2  1  0.25144  0.00000  -0.00000  1
 Ba  Ba1  1  0.50000  -0.00000  0.00000  1
 K  K1  1  0.00000  0.00000  0.00000  1
