CIF file written using JARVIS-Tools package.
data_AgO
_symmetry_space_group_name_H-M  'C2/c'
_cell_length_a       3.25294
_cell_length_b       3.25294
_cell_length_c       5.5831
_cell_angle_alpha    89.8202
_cell_angle_beta     89.8202
_cell_angle_gamma    89.2138

_symmetry_Int_Tables_number  15
_chemical_formula_structural  AgO
_chemical_formula_sum  Ag2O2
_cell_volume  59.072208439961756
_cell_formula_units_Z  2
loop_
  _symmetry_equiv_pos_site_id
 _symmetry_equiv_pos_as_xyz
 1  'x, y, z'
loop_
 _atom_site_type_symbol
 _atom_site_label
 _atom_site_symmetry_multiplicity
 _atom_site_fract_x
 _atom_site_fract_y
 _atom_site_fract_z
 _atom_site_fract_occupancy
 Ag  Ag1  1  0.00000  0.50000  0.50000  1
 Ag  Ag2  1  0.50000  -0.00000  -0.00000  1
 O  O1  1  -0.00120  0.00120  0.25000  1
 O  O2  1  0.00120  -0.00120  0.75000  1
