CIF file written using JARVIS-Tools package.
data_IrN2
_symmetry_space_group_name_H-M  'Amm2'
_cell_length_a       3.31565
_cell_length_b       3.31565
_cell_length_c       3.74753
_cell_angle_alpha    90
_cell_angle_beta     90
_cell_angle_gamma    130.939

_symmetry_Int_Tables_number  38
_chemical_formula_structural  IrN2
_chemical_formula_sum  IrN2
_cell_volume  31.121938513724945
_cell_formula_units_Z  1
loop_
  _symmetry_equiv_pos_site_id
 _symmetry_equiv_pos_as_xyz
 1  'x, y, z'
loop_
 _atom_site_type_symbol
 _atom_site_label
 _atom_site_symmetry_multiplicity
 _atom_site_fract_x
 _atom_site_fract_y
 _atom_site_fract_z
 _atom_site_fract_occupancy
 Ir  Ir1  1  0.28854  0.71146  0.50000  1
 N  N1  1  0.02238  0.97762  0.16764  1
 N  N2  1  0.02238  0.97762  0.83236  1
