CIF file written using JARVIS-Tools package.
data_CoSI
_symmetry_space_group_name_H-M  'F-43m'
_cell_length_a       4.46032
_cell_length_b       4.46032
_cell_length_c       4.46032
_cell_angle_alpha    60
_cell_angle_beta     60
_cell_angle_gamma    60

_symmetry_Int_Tables_number  216
_chemical_formula_structural  CoSI
_chemical_formula_sum  CoSI
_cell_volume  62.74513859669783
_cell_formula_units_Z  1
loop_
  _symmetry_equiv_pos_site_id
 _symmetry_equiv_pos_as_xyz
 1  'x, y, z'
loop_
 _atom_site_type_symbol
 _atom_site_label
 _atom_site_symmetry_multiplicity
 _atom_site_fract_x
 _atom_site_fract_y
 _atom_site_fract_z
 _atom_site_fract_occupancy
 Co  Co1  1  0.00000  0.00000  0.00000  1
 I  I1  1  0.25000  0.25000  0.25000  1
 S  S1  1  0.75000  0.75000  0.75000  1
