CIF file written using JARVIS-Tools package.
data_Si
_symmetry_space_group_name_H-M  'I4_1/amd'
_cell_length_a       2.7095
_cell_length_b       3.69064
_cell_length_c       3.69064
_cell_angle_alpha    82.2415
_cell_angle_beta     68.4645
_cell_angle_gamma    68.4645

_symmetry_Int_Tables_number  141
_chemical_formula_structural  Si
_chemical_formula_sum  Si2
_cell_volume  31.932719505837294
_cell_formula_units_Z  2
loop_
  _symmetry_equiv_pos_site_id
 _symmetry_equiv_pos_as_xyz
 1  'x, y, z'
loop_
 _atom_site_type_symbol
 _atom_site_label
 _atom_site_symmetry_multiplicity
 _atom_site_fract_x
 _atom_site_fract_y
 _atom_site_fract_z
 _atom_site_fract_occupancy
 Si  Si1  1  0.12520  0.25000  0.75000  1
 Si  Si2  1  0.87480  0.75000  0.25000  1
