CIF file written using JARVIS-Tools package.
data_LiSc2Au
_symmetry_space_group_name_H-M  'Fm-3m'
_cell_length_a       4.75591
_cell_length_b       4.75591
_cell_length_c       4.75589
_cell_angle_alpha    59.9939
_cell_angle_beta     59.9945
_cell_angle_gamma    59.9944

_symmetry_Int_Tables_number  225
_chemical_formula_structural  LiSc2Au
_chemical_formula_sum  LiSc2Au
_cell_volume  76.05507551972494
_cell_formula_units_Z  1
loop_
  _symmetry_equiv_pos_site_id
 _symmetry_equiv_pos_as_xyz
 1  'x, y, z'
loop_
 _atom_site_type_symbol
 _atom_site_label
 _atom_site_symmetry_multiplicity
 _atom_site_fract_x
 _atom_site_fract_y
 _atom_site_fract_z
 _atom_site_fract_occupancy
 Au  Au1  1  0.25000  0.25000  0.25000  1
 Li  Li1  1  0.75000  0.75000  0.75000  1
 Sc  Sc1  1  0.99999  0.99999  0.99999  1
 Sc  Sc2  1  0.50000  0.50000  0.50001  1
