CIF file written using JARVIS-Tools package.
data_Hf2MnZn
_symmetry_space_group_name_H-M  'R-3m'
_cell_length_a       11.2012
_cell_length_b       7.91223
_cell_length_c       7.91223
_cell_angle_alpha    33.3372
_cell_angle_beta     19.3552
_cell_angle_gamma    19.3552

_symmetry_Int_Tables_number  166
_chemical_formula_structural  Hf2MnZn
_chemical_formula_sum  Hf2MnZn
_cell_volume  66.79014913696832
_cell_formula_units_Z  1
loop_
  _symmetry_equiv_pos_site_id
 _symmetry_equiv_pos_as_xyz
 1  'x, y, z'
loop_
 _atom_site_type_symbol
 _atom_site_label
 _atom_site_symmetry_multiplicity
 _atom_site_fract_x
 _atom_site_fract_y
 _atom_site_fract_z
 _atom_site_fract_occupancy
 Hf  Hf1  1  0.74925  0.00032  0.00032  1
 Hf  Hf2  1  0.25075  0.99968  0.99968  1
 Mn  Mn1  1  0.00000  0.00000  0.00000  1
 Zn  Zn1  1  0.50000  -0.00000  -0.00000  1
