CIF file written using JARVIS-Tools package.
data_Li2CdGa
_symmetry_space_group_name_H-M  'Immm'
_cell_length_a       10.5723
_cell_length_b       6.0589
_cell_length_c       6.0589
_cell_angle_alpha    29.2011
_cell_angle_beta     29.2542
_cell_angle_gamma    29.2542

_symmetry_Int_Tables_number  71
_chemical_formula_structural  Li2CdGa
_chemical_formula_sum  Li2CdGa
_cell_volume  81.9175208608395
_cell_formula_units_Z  1
loop_
  _symmetry_equiv_pos_site_id
 _symmetry_equiv_pos_as_xyz
 1  'x, y, z'
loop_
 _atom_site_type_symbol
 _atom_site_label
 _atom_site_symmetry_multiplicity
 _atom_site_fract_x
 _atom_site_fract_y
 _atom_site_fract_z
 _atom_site_fract_occupancy
 Cd  Cd1  1  0.50000  0.00000  -0.00000  1
 Ga  Ga1  1  0.00000  0.00000  0.00000  1
 Li  Li1  1  0.75825  0.00000  -0.00000  1
 Li  Li2  1  0.24175  -0.00000  0.00000  1
