CIF file written using JARVIS-Tools package.
data_Ti2ZnOs
_symmetry_space_group_name_H-M  'Immm'
_cell_length_a       10.2168
_cell_length_b       5.76516
_cell_length_c       5.76515
_cell_angle_alpha    46.4697
_cell_angle_beta     27.6154
_cell_angle_gamma    27.6154

_symmetry_Int_Tables_number  71
_chemical_formula_structural  Ti2ZnOs
_chemical_formula_sum  Ti2ZnOs
_cell_volume  65.2068754040822
_cell_formula_units_Z  1
loop_
  _symmetry_equiv_pos_site_id
 _symmetry_equiv_pos_as_xyz
 1  'x, y, z'
loop_
 _atom_site_type_symbol
 _atom_site_label
 _atom_site_symmetry_multiplicity
 _atom_site_fract_x
 _atom_site_fract_y
 _atom_site_fract_z
 _atom_site_fract_occupancy
 Os  Os1  1  0.50000  0.00000  0.00000  1
 Ti  Ti1  1  0.74250  -0.00000  -0.00000  1
 Ti  Ti2  1  0.25750  0.00000  0.00000  1
 Zn  Zn1  1  0.00000  0.00000  0.00000  1
