CIF file written using JARVIS-Tools package.
data_TiO2
_symmetry_space_group_name_H-M  'Fd-3m'
_cell_length_a       5.94203
_cell_length_b       5.94203
_cell_length_c       5.94203
_cell_angle_alpha    60.0001
_cell_angle_beta     60
_cell_angle_gamma    60

_symmetry_Int_Tables_number  227
_chemical_formula_structural  TiO2
_chemical_formula_sum  Ti4O8
_cell_volume  148.3505753754319
_cell_formula_units_Z  4
loop_
  _symmetry_equiv_pos_site_id
 _symmetry_equiv_pos_as_xyz
 1  'x, y, z'
loop_
 _atom_site_type_symbol
 _atom_site_label
 _atom_site_symmetry_multiplicity
 _atom_site_fract_x
 _atom_site_fract_y
 _atom_site_fract_z
 _atom_site_fract_occupancy
 O  O1  1  0.26523  0.26523  0.26523  1
 O  O2  1  0.73477  0.73477  0.29568  1
 O  O3  1  0.29568  0.73477  0.73477  1
 O  O4  1  0.73477  0.29568  0.73477  1
 O  O5  1  0.70432  0.26523  0.26523  1
 O  O6  1  0.26523  0.70432  0.26523  1
 O  O7  1  0.26523  0.26523  0.70432  1
 O  O8  1  0.73477  0.73477  0.73477  1
 Ti  Ti1  1  0.50000  0.50000  0.50000  1
 Ti  Ti2  1  0.50000  0.50000  -0.00000  1
 Ti  Ti3  1  -0.00000  0.50000  0.50000  1
 Ti  Ti4  1  0.50000  0.00000  0.50000  1
