CIF file written using JARVIS-Tools package.
data_K2NaCd
_symmetry_space_group_name_H-M  'Immm'
_cell_length_a       20.6759
_cell_length_b       10.8044
_cell_length_c       10.8044
_cell_angle_alpha    23.7694
_cell_angle_beta     16.8969
_cell_angle_gamma    16.8968

_symmetry_Int_Tables_number  71
_chemical_formula_structural  K2NaCd
_chemical_formula_sum  K2NaCd
_cell_volume  203.8918605951053
_cell_formula_units_Z  1
loop_
  _symmetry_equiv_pos_site_id
 _symmetry_equiv_pos_as_xyz
 1  'x, y, z'
loop_
 _atom_site_type_symbol
 _atom_site_label
 _atom_site_symmetry_multiplicity
 _atom_site_fract_x
 _atom_site_fract_y
 _atom_site_fract_z
 _atom_site_fract_occupancy
 Cd  Cd1  1  0.50000  -0.00000  0.00000  1
 K  K1  1  0.66495  -0.00000  -0.00000  1
 K  K2  1  0.33505  0.00000  0.00000  1
 Na  Na1  1  0.00000  0.00000  0.00000  1
