CIF file written using JARVIS-Tools package.
data_EuPd
_symmetry_space_group_name_H-M  'Cmcm'
_cell_length_a       3.78057
_cell_length_b       4.57435
_cell_length_c       5.66046
_cell_angle_alpha    90
_cell_angle_beta     109.508
_cell_angle_gamma    90

_symmetry_Int_Tables_number  63
_chemical_formula_structural  EuPd
_chemical_formula_sum  Eu2Pd2
_cell_volume  92.2702359134419
_cell_formula_units_Z  2
loop_
  _symmetry_equiv_pos_site_id
 _symmetry_equiv_pos_as_xyz
 1  'x, y, z'
loop_
 _atom_site_type_symbol
 _atom_site_label
 _atom_site_symmetry_multiplicity
 _atom_site_fract_x
 _atom_site_fract_y
 _atom_site_fract_z
 _atom_site_fract_occupancy
 Eu  Eu1  1  0.86290  0.75000  0.72580  1
 Eu  Eu2  1  0.13710  0.25000  0.27420  1
 Pd  Pd1  1  0.58767  0.75000  0.17533  1
 Pd  Pd2  1  0.41233  0.25000  0.82467  1
