CIF file written using JARVIS-Tools package.
data_Ca2AgRh
_symmetry_space_group_name_H-M  'Fm-3m'
_cell_length_a       12.2096
_cell_length_b       8.63693
_cell_length_c       8.63694
_cell_angle_alpha    33.5857
_cell_angle_beta     19.4939
_cell_angle_gamma    19.4939

_symmetry_Int_Tables_number  225
_chemical_formula_structural  Ca2AgRh
_chemical_formula_sum  Ca2AgRh
_cell_volume  87.89061877371843
_cell_formula_units_Z  1
loop_
  _symmetry_equiv_pos_site_id
 _symmetry_equiv_pos_as_xyz
 1  'x, y, z'
loop_
 _atom_site_type_symbol
 _atom_site_label
 _atom_site_symmetry_multiplicity
 _atom_site_fract_x
 _atom_site_fract_y
 _atom_site_fract_z
 _atom_site_fract_occupancy
 Ag  Ag1  1  0.50000  0.00000  0.00000  1
 Ca  Ca1  1  0.74985  0.00020  0.00020  1
 Ca  Ca2  1  0.25015  0.99980  0.99980  1
 Rh  Rh1  1  0.00000  0.00000  0.00000  1
