CIF file written using JARVIS-Tools package.
data_Y2ZnPb
_symmetry_space_group_name_H-M  'Fm-3m'
_cell_length_a       12.8184
_cell_length_b       9.06453
_cell_length_c       9.06435
_cell_angle_alpha    33.552
_cell_angle_beta     19.4669
_cell_angle_gamma    19.4671

_symmetry_Int_Tables_number  225
_chemical_formula_structural  Y2ZnPb
_chemical_formula_sum  Y2ZnPb
_cell_volume  101.29244002141293
_cell_formula_units_Z  1
loop_
  _symmetry_equiv_pos_site_id
 _symmetry_equiv_pos_as_xyz
 1  'x, y, z'
loop_
 _atom_site_type_symbol
 _atom_site_label
 _atom_site_symmetry_multiplicity
 _atom_site_fract_x
 _atom_site_fract_y
 _atom_site_fract_z
 _atom_site_fract_occupancy
 Pb  Pb1  1  0.50000  -0.00000  -0.00000  1
 Y  Y1  1  0.74994  0.00003  0.00003  1
 Y  Y2  1  0.25006  -0.00003  -0.00003  1
 Zn  Zn1  1  -0.00000  0.00000  0.00000  1
