CIF file written using JARVIS-Tools package.
data_Mn2ZnO5
_symmetry_space_group_name_H-M  'Pmmn'
_cell_length_a       3.46555
_cell_length_b       4.50518
_cell_length_c       11.5625
_cell_angle_alpha    90
_cell_angle_beta     90
_cell_angle_gamma    90

_symmetry_Int_Tables_number  59
_chemical_formula_structural  Mn2ZnO5
_chemical_formula_sum  Mn4Zn2O0
_cell_volume  180.52532425229947
_cell_formula_units_Z  2
loop_
  _symmetry_equiv_pos_site_id
 _symmetry_equiv_pos_as_xyz
 1  'x, y, z'
loop_
 _atom_site_type_symbol
 _atom_site_label
 _atom_site_symmetry_multiplicity
 _atom_site_fract_x
 _atom_site_fract_y
 _atom_site_fract_z
 _atom_site_fract_occupancy
 Mn  Mn1  1  0.50000  0.53601  0.35055  1
 Mn  Mn2  1  0.00000  0.46399  0.14945  1
 Mn  Mn3  1  0.00000  0.46399  0.85055  1
 Mn  Mn4  1  0.50000  0.53601  0.64945  1
 O  O1  1  0.00000  0.60709  0.00000  1
 O  O2  1  0.50000  0.39291  0.50000  1
 O  O3  1  0.00000  0.42850  0.32251  1
 O  O4  1  0.50000  0.57150  0.17749  1
 O  O5  1  0.00000  0.42850  0.67749  1
 O  O6  1  0.50000  0.57150  0.82251  1
 O  O7  1  0.50000  0.91018  0.61443  1
 O  O8  1  0.00000  0.08982  0.88557  1
 O  O9  1  0.00000  0.08982  0.11443  1
 O  O10  1  0.50000  0.91018  0.38557  1
 Zn  Zn1  1  0.00000  0.04551  0.50000  1
 Zn  Zn2  1  0.50000  0.95449  0.00000  1
