CIF file written using JARVIS-Tools package.
data_KCuF3
_symmetry_space_group_name_H-M  'Pm-3m'
_cell_length_a       5.7109
_cell_length_b       5.7109
_cell_length_c       5.71091
_cell_angle_alpha    89.984
_cell_angle_beta     120.009
_cell_angle_gamma    120.009

_symmetry_Int_Tables_number  221
_chemical_formula_structural  KCuF3
_chemical_formula_sum  K2Cu2F6
_cell_volume  131.68573970107653
_cell_formula_units_Z  2
loop_
  _symmetry_equiv_pos_site_id
 _symmetry_equiv_pos_as_xyz
 1  'x, y, z'
loop_
 _atom_site_type_symbol
 _atom_site_label
 _atom_site_symmetry_multiplicity
 _atom_site_fract_x
 _atom_site_fract_y
 _atom_site_fract_z
 _atom_site_fract_occupancy
 Cu  Cu1  1  0.50000  -0.00000  0.50000  1
 Cu  Cu2  1  0.50000  0.50000  -0.00000  1
 F  F1  1  0.00014  0.25007  0.75007  1
 F  F2  1  0.50000  0.75007  0.74993  1
 F  F3  1  0.50000  0.24993  0.25007  1
 F  F4  1  -0.00014  0.74993  0.24993  1
 F  F5  1  0.50000  0.75000  0.25000  1
 F  F6  1  0.50000  0.25000  0.75000  1
 K  K1  1  -0.00000  0.75000  0.75000  1
 K  K2  1  -0.00000  0.25000  0.25000  1
