data_image0
_chemical_formula_structural       Al3Gd3Pd3
_chemical_formula_sum              "Al3 Gd3 Pd3"
_cell_length_a       7.14699
_cell_length_b       7.14699
_cell_length_c       4.11812
_cell_angle_alpha    90
_cell_angle_beta     90
_cell_angle_gamma    119.999

_space_group_name_H-M_alt    "P 1"
_space_group_IT_number       1

loop_
  _space_group_symop_operation_xyz
  'x, y, z'

loop_
  _atom_site_type_symbol
  _atom_site_label
  _atom_site_symmetry_multiplicity
  _atom_site_fract_x
  _atom_site_fract_y
  _atom_site_fract_z
  _atom_site_occupancy
  Al  Al1       1.0  0.23500  0.00001  0.00000  1.0000
  Al  Al2       1.0  0.00001  0.23500  0.00000  1.0000
  Al  Al3       1.0  0.76500  0.76500  0.00000  1.0000
  Gd  Gd1       1.0  0.58400  0.00004  0.50000  1.0000
  Gd  Gd2       1.0  0.41700  0.41700  0.50000  1.0000
  Gd  Gd3       1.0  0.00004  0.58400  0.50000  1.0000
  Pd  Pd1       1.0  0.66700  0.33300  0.00000  1.0000
  Pd  Pd2       1.0  0.33300  0.66700  0.00000  1.0000
  Pd  Pd3       1.0  0.00001  0.00001  0.50000  1.0000
