CIF file written using JARVIS-Tools package.
data_BaCaAg4O8
_symmetry_space_group_name_H-M  'P-31m'
_cell_length_a       5.82193
_cell_length_b       5.82193
_cell_length_c       7.61938
_cell_angle_alpha    90
_cell_angle_beta     90
_cell_angle_gamma    120

_symmetry_Int_Tables_number  162
_chemical_formula_structural  BaCaAg4O8
_chemical_formula_sum  BaCaAg4O8
_cell_volume  223.65813356212527
_cell_formula_units_Z  1
loop_
  _symmetry_equiv_pos_site_id
 _symmetry_equiv_pos_as_xyz
 1  'x, y, z'
loop_
 _atom_site_type_symbol
 _atom_site_label
 _atom_site_symmetry_multiplicity
 _atom_site_fract_x
 _atom_site_fract_y
 _atom_site_fract_z
 _atom_site_fract_occupancy
 Ag  Ag1  1  0.33333  0.66667  0.73145  1
 Ag  Ag2  1  0.66667  0.33333  0.73145  1
 Ag  Ag3  1  0.33333  0.66667  0.26855  1
 Ag  Ag4  1  0.66667  0.33333  0.26855  1
 Ba  Ba1  1  0.00000  0.00000  0.00000  1
 Ca  Ca1  1  0.00000  0.00000  0.50000  1
 O  O1  1  0.29582  0.29582  0.70339  1
 O  O2  1  0.70418  0.00000  0.70339  1
 O  O3  1  0.00000  0.70418  0.70339  1
 O  O4  1  0.70418  0.70418  0.29661  1
 O  O5  1  -0.00000  0.29582  0.29661  1
 O  O6  1  0.29582  -0.00000  0.29661  1
 O  O7  1  0.33333  0.66667  0.00000  1
 O  O8  1  0.66667  0.33333  0.00000  1
