CIF file written using JARVIS-Tools package.
data_LiTi2Ir
_symmetry_space_group_name_H-M  'Immm'
_cell_length_a       9.92486
_cell_length_b       5.63085
_cell_length_c       5.63085
_cell_angle_alpha    47.5935
_cell_angle_beta     28.2012
_cell_angle_gamma    28.2012

_symmetry_Int_Tables_number  71
_chemical_formula_structural  LiTi2Ir
_chemical_formula_sum  LiTi2Ir
_cell_volume  62.469901026565985
_cell_formula_units_Z  1
loop_
  _symmetry_equiv_pos_site_id
 _symmetry_equiv_pos_as_xyz
 1  'x, y, z'
loop_
 _atom_site_type_symbol
 _atom_site_label
 _atom_site_symmetry_multiplicity
 _atom_site_fract_x
 _atom_site_fract_y
 _atom_site_fract_z
 _atom_site_fract_occupancy
 Ir  Ir1  1  0.50000  0.00000  -0.00000  1
 Li  Li1  1  0.00000  0.00000  0.00000  1
 Ti  Ti1  1  0.74650  -0.00000  -0.00000  1
 Ti  Ti2  1  0.25350  0.00000  0.00000  1
