CIF file written using JARVIS-Tools package.
data_Y2CdIr
_symmetry_space_group_name_H-M  'Immm'
_cell_length_a       15.3258
_cell_length_b       8.12411
_cell_length_c       8.12411
_cell_angle_alpha    29.6238
_cell_angle_beta     19.3984
_cell_angle_gamma    19.3984

_symmetry_Int_Tables_number  71
_chemical_formula_structural  Y2CdIr
_chemical_formula_sum  Y2CdIr
_cell_volume  109.66103376165162
_cell_formula_units_Z  1
loop_
  _symmetry_equiv_pos_site_id
 _symmetry_equiv_pos_as_xyz
 1  'x, y, z'
loop_
 _atom_site_type_symbol
 _atom_site_label
 _atom_site_symmetry_multiplicity
 _atom_site_fract_x
 _atom_site_fract_y
 _atom_site_fract_z
 _atom_site_fract_occupancy
 Cd  Cd1  1  0.00000  0.00000  0.00000  1
 Ir  Ir1  1  0.50000  -0.00000  0.00000  1
 Y  Y1  1  0.66953  -0.00000  -0.00000  1
 Y  Y2  1  0.33047  0.00000  0.00000  1
