CIF file written using JARVIS-Tools package.
data_NbSnRu2
_symmetry_space_group_name_H-M  'Immm'
_cell_length_a       10.5277
_cell_length_b       5.97145
_cell_length_c       5.97145
_cell_angle_alpha    48.0221
_cell_angle_beta     28.1755
_cell_angle_gamma    28.1756

_symmetry_Int_Tables_number  71
_chemical_formula_structural  NbSnRu2
_chemical_formula_sum  NbSnRu2
_cell_volume  73.1760864835556
_cell_formula_units_Z  1
loop_
  _symmetry_equiv_pos_site_id
 _symmetry_equiv_pos_as_xyz
 1  'x, y, z'
loop_
 _atom_site_type_symbol
 _atom_site_label
 _atom_site_symmetry_multiplicity
 _atom_site_fract_x
 _atom_site_fract_y
 _atom_site_fract_z
 _atom_site_fract_occupancy
 Nb  Nb1  1  0.00000  0.00000  0.00000  1
 Ru  Ru1  1  0.76978  -0.00000  0.00000  1
 Ru  Ru2  1  0.23022  0.00000  -0.00000  1
 Sn  Sn1  1  0.50000  0.00000  0.00000  1
