CIF file written using JARVIS-Tools package.
data_Ca2HgAu
_symmetry_space_group_name_H-M  'Immm'
_cell_length_a       11.8284
_cell_length_b       6.95803
_cell_length_c       6.95803
_cell_angle_alpha    23.8277
_cell_angle_beta     31.7864
_cell_angle_gamma    31.7863

_symmetry_Int_Tables_number  71
_chemical_formula_structural  Ca2HgAu
_chemical_formula_sum  Ca2HgAu
_cell_volume  114.58258919822174
_cell_formula_units_Z  1
loop_
  _symmetry_equiv_pos_site_id
 _symmetry_equiv_pos_as_xyz
 1  'x, y, z'
loop_
 _atom_site_type_symbol
 _atom_site_label
 _atom_site_symmetry_multiplicity
 _atom_site_fract_x
 _atom_site_fract_y
 _atom_site_fract_z
 _atom_site_fract_occupancy
 Au  Au1  1  0.00000  0.00000  0.00000  1
 Ca  Ca1  1  0.76629  -0.00000  -0.00000  1
 Ca  Ca2  1  0.23371  0.00000  0.00000  1
 Hg  Hg1  1  0.50000  0.00000  -0.00000  1
