CIF file written using JARVIS-Tools package.
data_MgSn4O8
_symmetry_space_group_name_H-M  'R-3m'
_cell_length_a       6.26767
_cell_length_b       6.26767
_cell_length_c       6.26767
_cell_angle_alpha    63.8867
_cell_angle_beta     63.8867
_cell_angle_gamma    63.8868

_symmetry_Int_Tables_number  166
_chemical_formula_structural  MgSn4O8
_chemical_formula_sum  MgSn4O8
_cell_volume  189.01891599123383
_cell_formula_units_Z  1
loop_
  _symmetry_equiv_pos_site_id
 _symmetry_equiv_pos_as_xyz
 1  'x, y, z'
loop_
 _atom_site_type_symbol
 _atom_site_label
 _atom_site_symmetry_multiplicity
 _atom_site_fract_x
 _atom_site_fract_y
 _atom_site_fract_z
 _atom_site_fract_occupancy
 Mg  Mg1  1  0.50000  0.50000  0.50000  1
 O  O1  1  0.73428  0.30432  0.73428  1
 O  O2  1  0.26571  0.26572  0.69568  1
 O  O3  1  0.26571  0.69568  0.26571  1
 O  O4  1  0.69568  0.26572  0.26572  1
 O  O5  1  0.26220  0.26220  0.26220  1
 O  O6  1  0.73780  0.73780  0.73780  1
 O  O7  1  0.30432  0.73429  0.73428  1
 O  O8  1  0.73429  0.73429  0.30432  1
 Sn  Sn1  1  0.50000  1.00000  0.50000  1
 Sn  Sn2  1  1.00000  0.50000  0.50000  1
 Sn  Sn3  1  0.50000  0.50000  -0.00000  1
 Sn  Sn4  1  0.00000  0.00000  0.00000  1
