CIF file written using JARVIS-Tools package.
data_SrMg
_symmetry_space_group_name_H-M  'P6_3/mmc'
_cell_length_a       5.94964
_cell_length_b       5.94964
_cell_length_c       7.00455
_cell_angle_alpha    90
_cell_angle_beta     90
_cell_angle_gamma    120

_symmetry_Int_Tables_number  194
_chemical_formula_structural  SrMg
_chemical_formula_sum  Sr2Mg2
_cell_volume  214.7294215488876
_cell_formula_units_Z  2
loop_
  _symmetry_equiv_pos_site_id
 _symmetry_equiv_pos_as_xyz
 1  'x, y, z'
loop_
 _atom_site_type_symbol
 _atom_site_label
 _atom_site_symmetry_multiplicity
 _atom_site_fract_x
 _atom_site_fract_y
 _atom_site_fract_z
 _atom_site_fract_occupancy
 Mg  Mg1  1  0.33333  0.66667  0.06248  1
 Mg  Mg2  1  0.66667  0.33333  0.56248  1
 Sr  Sr1  1  0.33333  0.66667  0.56252  1
 Sr  Sr2  1  0.66667  0.33333  0.06252  1
