CIF file written using JARVIS-Tools package.
data_FeAgS2
_symmetry_space_group_name_H-M  'R3m'
_cell_length_a       3.35771
_cell_length_b       3.35771
_cell_length_c       7.08945
_cell_angle_alpha    76.3016
_cell_angle_beta     76.3016
_cell_angle_gamma    59.9999

_symmetry_Int_Tables_number  160
_chemical_formula_structural  FeAgS2
_chemical_formula_sum  FeAgS2
_cell_volume  66.58146152831615
_cell_formula_units_Z  1
loop_
  _symmetry_equiv_pos_site_id
 _symmetry_equiv_pos_as_xyz
 1  'x, y, z'
loop_
 _atom_site_type_symbol
 _atom_site_label
 _atom_site_symmetry_multiplicity
 _atom_site_fract_x
 _atom_site_fract_y
 _atom_site_fract_z
 _atom_site_fract_occupancy
 Ag  Ag1  1  0.84357  0.84357  0.46930  1
 Fe  Fe1  1  0.00037  0.00037  -0.00111  1
 S  S1  1  0.72470  0.72470  0.82590  1
 S  S2  1  0.27236  0.27236  0.18291  1
