CIF file written using JARVIS-Tools package.
data_CaSb4O8
_symmetry_space_group_name_H-M  'R-3m'
_cell_length_a       6.77313
_cell_length_b       6.77313
_cell_length_c       6.77313
_cell_angle_alpha    61.0746
_cell_angle_beta     61.0746
_cell_angle_gamma    61.0746

_symmetry_Int_Tables_number  166
_chemical_formula_structural  CaSb4O8
_chemical_formula_sum  CaSb4O8
_cell_volume  225.02725627079502
_cell_formula_units_Z  1
loop_
  _symmetry_equiv_pos_site_id
 _symmetry_equiv_pos_as_xyz
 1  'x, y, z'
loop_
 _atom_site_type_symbol
 _atom_site_label
 _atom_site_symmetry_multiplicity
 _atom_site_fract_x
 _atom_site_fract_y
 _atom_site_fract_z
 _atom_site_fract_occupancy
 Ca  Ca1  1  0.50000  0.50000  0.50000  1
 O  O1  1  0.75246  0.28664  0.75246  1
 O  O2  1  0.24754  0.24754  0.71336  1
 O  O3  1  0.24754  0.71337  0.24754  1
 O  O4  1  0.71336  0.24754  0.24754  1
 O  O5  1  0.27329  0.27329  0.27329  1
 O  O6  1  0.72671  0.72671  0.72671  1
 O  O7  1  0.28664  0.75246  0.75246  1
 O  O8  1  0.75246  0.75246  0.28664  1
 Sb  Sb1  1  0.50000  1.00000  0.50000  1
 Sb  Sb2  1  1.00000  0.50000  0.50000  1
 Sb  Sb3  1  0.50000  0.50000  0.00000  1
 Sb  Sb4  1  0.00000  0.00000  0.00000  1
