CIF file written using JARVIS-Tools package.
data_TiClO
_symmetry_space_group_name_H-M  'Pmmn'
_cell_length_a       3.2567
_cell_length_b       4.01634
_cell_length_c       7.51104
_cell_angle_alpha    90
_cell_angle_beta     90
_cell_angle_gamma    90

_symmetry_Int_Tables_number  59
_chemical_formula_structural  TiClO
_chemical_formula_sum  Ti2Cl2O2
_cell_volume  98.2444474670818
_cell_formula_units_Z  2
loop_
  _symmetry_equiv_pos_site_id
 _symmetry_equiv_pos_as_xyz
 1  'x, y, z'
loop_
 _atom_site_type_symbol
 _atom_site_label
 _atom_site_symmetry_multiplicity
 _atom_site_fract_x
 _atom_site_fract_y
 _atom_site_fract_z
 _atom_site_fract_occupancy
 Cl  Cl1  1  0.75000  0.75000  0.66769  1
 Cl  Cl2  1  0.25000  0.25000  0.33231  1
 O  O1  1  0.25000  0.25000  0.92166  1
 O  O2  1  0.75000  0.75000  0.07834  1
 Ti  Ti1  1  0.75000  0.25000  0.09427  1
 Ti  Ti2  1  0.25000  0.75000  0.90573  1
