CIF file written using JARVIS-Tools package.
data_WS
_symmetry_space_group_name_H-M  'P6_3mc'
_cell_length_a       3.02858
_cell_length_b       3.02858
_cell_length_c       8.1844
_cell_angle_alpha    90
_cell_angle_beta     90
_cell_angle_gamma    120

_symmetry_Int_Tables_number  186
_chemical_formula_structural  WS
_chemical_formula_sum  W2S2
_cell_volume  65.0123997246712
_cell_formula_units_Z  2
loop_
  _symmetry_equiv_pos_site_id
 _symmetry_equiv_pos_as_xyz
 1  'x, y, z'
loop_
 _atom_site_type_symbol
 _atom_site_label
 _atom_site_symmetry_multiplicity
 _atom_site_fract_x
 _atom_site_fract_y
 _atom_site_fract_z
 _atom_site_fract_occupancy
 S  S1  1  0.33333  0.66667  0.15950  1
 S  S2  1  0.66667  0.33333  0.65950  1
 W  W1  1  0.33333  0.66667  0.46350  1
 W  W2  1  0.66667  0.33333  0.96350  1
