CIF file written using JARVIS-Tools package.
data_Al2FeO4
_symmetry_space_group_name_H-M  'Fd-3m'
_cell_length_a       5.79397
_cell_length_b       5.79399
_cell_length_c       5.79433
_cell_angle_alpha    59.9984
_cell_angle_beta     59.9983
_cell_angle_gamma    60.0042

_symmetry_Int_Tables_number  227
_chemical_formula_structural  Al2FeO4
_chemical_formula_sum  Al4Fe2O8
_cell_volume  137.54516067693643
_cell_formula_units_Z  2
loop_
  _symmetry_equiv_pos_site_id
 _symmetry_equiv_pos_as_xyz
 1  'x, y, z'
loop_
 _atom_site_type_symbol
 _atom_site_label
 _atom_site_symmetry_multiplicity
 _atom_site_fract_x
 _atom_site_fract_y
 _atom_site_fract_z
 _atom_site_fract_occupancy
 Al  Al1  1  0.50000  0.50000  0.50000  1
 Al  Al2  1  0.50000  0.50000  -0.00000  1
 Al  Al3  1  0.50000  -0.00000  0.50000  1
 Al  Al4  1  0.00000  0.50000  0.50000  1
 Fe  Fe1  1  0.87500  0.87500  0.87500  1
 Fe  Fe2  1  0.12500  0.12500  0.12500  1
 O  O1  1  0.73502  0.73502  0.73498  1
 O  O2  1  0.26498  0.26498  0.70502  1
 O  O3  1  0.26502  0.70502  0.26498  1
 O  O4  1  0.70502  0.26502  0.26498  1
 O  O5  1  0.73498  0.29498  0.73502  1
 O  O6  1  0.29498  0.73498  0.73502  1
 O  O7  1  0.26498  0.26498  0.26502  1
 O  O8  1  0.73502  0.73502  0.29498  1
