CIF file written using JARVIS-Tools package.
data_HfO2
_symmetry_space_group_name_H-M  'P4_2/mnm'
_cell_length_a       4.84486
_cell_length_b       4.84486
_cell_length_c       3.22531
_cell_angle_alpha    90
_cell_angle_beta     90
_cell_angle_gamma    90

_symmetry_Int_Tables_number  136
_chemical_formula_structural  HfO2
_chemical_formula_sum  Hf2O4
_cell_volume  75.7067110591261
_cell_formula_units_Z  2
loop_
  _symmetry_equiv_pos_site_id
 _symmetry_equiv_pos_as_xyz
 1  'x, y, z'
loop_
 _atom_site_type_symbol
 _atom_site_label
 _atom_site_symmetry_multiplicity
 _atom_site_fract_x
 _atom_site_fract_y
 _atom_site_fract_z
 _atom_site_fract_occupancy
 Hf  Hf1  1  0.00000  0.00000  0.00000  1
 Hf  Hf2  1  0.50000  0.50000  0.50000  1
 O  O1  1  0.80501  0.19499  0.50000  1
 O  O2  1  0.30501  0.30501  0.00000  1
 O  O3  1  0.69499  0.69499  0.00000  1
 O  O4  1  0.19499  0.80501  0.50000  1
