CIF file written using JARVIS-Tools package.
data_Mg3V2O8
_symmetry_space_group_name_H-M  'R-3m'
_cell_length_a       6.03714
_cell_length_b       6.03714
_cell_length_c       5.77873
_cell_angle_alpha    58.5093
_cell_angle_beta     58.5093
_cell_angle_gamma    60

_symmetry_Int_Tables_number  166
_chemical_formula_structural  Mg3V2O8
_chemical_formula_sum  Mg3V2O8
_cell_volume  145.48484031905815
_cell_formula_units_Z  1
loop_
  _symmetry_equiv_pos_site_id
 _symmetry_equiv_pos_as_xyz
 1  'x, y, z'
loop_
 _atom_site_type_symbol
 _atom_site_label
 _atom_site_symmetry_multiplicity
 _atom_site_fract_x
 _atom_site_fract_y
 _atom_site_fract_z
 _atom_site_fract_occupancy
 Mg  Mg1  1  0.50000  -0.00000  0.50000  1
 Mg  Mg2  1  -0.00000  0.50000  0.50000  1
 Mg  Mg3  1  0.50000  0.50000  0.50000  1
 O  O1  1  0.76283  0.76283  0.74668  1
 O  O2  1  0.25592  0.25592  0.73224  1
 O  O3  1  0.23717  0.77234  0.25332  1
 O  O4  1  0.77234  0.23717  0.25332  1
 O  O5  1  0.76283  0.22766  0.74668  1
 O  O6  1  0.22766  0.76283  0.74668  1
 O  O7  1  0.23717  0.23717  0.25332  1
 O  O8  1  0.74408  0.74408  0.26776  1
 V  V1  1  0.12416  0.12416  0.12751  1
 V  V2  1  0.87584  0.87584  0.87249  1
