CIF file written using JARVIS-Tools package.
data_Nd2Ti2O7
_symmetry_space_group_name_H-M  'Fd-3m'
_cell_length_a       7.33484
_cell_length_b       7.33484
_cell_length_c       7.33484
_cell_angle_alpha    60
_cell_angle_beta     60
_cell_angle_gamma    60

_symmetry_Int_Tables_number  227
_chemical_formula_structural  Nd2Ti2O7
_chemical_formula_sum  Nd4Ti4O4
_cell_volume  279.0341520969342
_cell_formula_units_Z  2
loop_
  _symmetry_equiv_pos_site_id
 _symmetry_equiv_pos_as_xyz
 1  'x, y, z'
loop_
 _atom_site_type_symbol
 _atom_site_label
 _atom_site_symmetry_multiplicity
 _atom_site_fract_x
 _atom_site_fract_y
 _atom_site_fract_z
 _atom_site_fract_occupancy
 Nd  Nd1  1  0.50000  0.50000  0.50000  1
 Nd  Nd2  1  0.50000  0.00000  0.50000  1
 Nd  Nd3  1  0.00000  0.50000  0.50000  1
 Nd  Nd4  1  0.50000  0.50000  0.00000  1
 O  O1  1  0.07503  0.07503  0.67497  1
 O  O2  1  0.67497  0.67497  0.07503  1
 O  O3  1  0.32503  0.92497  0.92497  1
 O  O4  1  0.92497  0.32503  0.92497  1
 O  O5  1  0.32503  0.32503  0.92497  1
 O  O6  1  0.07503  0.67497  0.07503  1
 O  O7  1  0.92497  0.92497  0.32503  1
 O  O8  1  0.67497  0.07503  0.07503  1
 O  O9  1  0.32503  0.92497  0.32503  1
 O  O10  1  0.67497  0.07503  0.67497  1
 O  O11  1  0.62500  0.62500  0.62500  1
 O  O12  1  0.37500  0.37500  0.37500  1
 O  O13  1  0.92497  0.32503  0.32503  1
 O  O14  1  0.07503  0.67497  0.67497  1
 Ti  Ti1  1  0.00000  0.50000  0.00000  1
 Ti  Ti2  1  0.50000  0.00000  0.00000  1
 Ti  Ti3  1  0.00000  0.00000  0.50000  1
 Ti  Ti4  1  0.00000  0.00000  0.00000  1
