CIF file written using JARVIS-Tools package.
data_AgAsF6
_symmetry_space_group_name_H-M  'Fm-3m'
_cell_length_a       5.92601
_cell_length_b       5.92601
_cell_length_c       5.92601
_cell_angle_alpha    60.0001
_cell_angle_beta     60.0001
_cell_angle_gamma    60.0001

_symmetry_Int_Tables_number  225
_chemical_formula_structural  AgAsF6
_chemical_formula_sum  AgAsF6
_cell_volume  147.15399631383474
_cell_formula_units_Z  1
loop_
  _symmetry_equiv_pos_site_id
 _symmetry_equiv_pos_as_xyz
 1  'x, y, z'
loop_
 _atom_site_type_symbol
 _atom_site_label
 _atom_site_symmetry_multiplicity
 _atom_site_fract_x
 _atom_site_fract_y
 _atom_site_fract_z
 _atom_site_fract_occupancy
 Ag  Ag1  1  0.50000  0.50000  0.50000  1
 As  As1  1  0.00000  0.00000  0.00000  1
 F  F1  1  0.21259  0.78741  0.21259  1
 F  F2  1  0.21259  0.21259  0.78741  1
 F  F3  1  0.78741  0.21259  0.21259  1
 F  F4  1  0.21259  0.78741  0.78741  1
 F  F5  1  0.78741  0.78741  0.21259  1
 F  F6  1  0.78741  0.21259  0.78741  1
