CIF file written using JARVIS-Tools package.
data_FeO2
_symmetry_space_group_name_H-M  'R-3m'
_cell_length_a       4.74749
_cell_length_b       4.74749
_cell_length_c       4.74749
_cell_angle_alpha    34.5119
_cell_angle_beta     34.5119
_cell_angle_gamma    34.5119

_symmetry_Int_Tables_number  166
_chemical_formula_structural  FeO2
_chemical_formula_sum  FeO2
_cell_volume  30.643858492760497
_cell_formula_units_Z  1
loop_
  _symmetry_equiv_pos_site_id
 _symmetry_equiv_pos_as_xyz
 1  'x, y, z'
loop_
 _atom_site_type_symbol
 _atom_site_label
 _atom_site_symmetry_multiplicity
 _atom_site_fract_x
 _atom_site_fract_y
 _atom_site_fract_z
 _atom_site_fract_occupancy
 Fe  Fe1  1  0.50000  0.50000  0.50000  1
 O  O1  1  0.76136  0.76136  0.76136  1
 O  O2  1  0.23864  0.23864  0.23864  1
