CIF file written using JARVIS-Tools package.
data_MgSnP2
_symmetry_space_group_name_H-M  'I-42d'
_cell_length_a       5.92695
_cell_length_b       5.92695
_cell_length_c       7.16053
_cell_angle_alpha    114.448
_cell_angle_beta     114.448
_cell_angle_gamma    90

_symmetry_Int_Tables_number  122
_chemical_formula_structural  MgSnP2
_chemical_formula_sum  Mg2Sn2P4
_cell_volume  203.95513412549442
_cell_formula_units_Z  2
loop_
  _symmetry_equiv_pos_site_id
 _symmetry_equiv_pos_as_xyz
 1  'x, y, z'
loop_
 _atom_site_type_symbol
 _atom_site_label
 _atom_site_symmetry_multiplicity
 _atom_site_fract_x
 _atom_site_fract_y
 _atom_site_fract_z
 _atom_site_fract_occupancy
 Mg  Mg1  1  0.50000  0.50000  0.00000  1
 Mg  Mg2  1  0.75000  0.25000  0.50000  1
 P  P1  1  0.87503  0.87500  0.25000  1
 P  P2  1  0.12500  0.62503  0.75000  1
 P  P3  1  0.62500  0.12497  0.75000  1
 P  P4  1  0.37497  0.37500  0.25000  1
 Sn  Sn1  1  0.00000  0.00000  0.00000  1
 Sn  Sn2  1  0.25000  0.75000  0.50000  1
