CIF file written using JARVIS-Tools package.
data_VH
_symmetry_space_group_name_H-M  'Cmcm'
_cell_length_a       2.60933
_cell_length_b       2.78982
_cell_length_c       4.96494
_cell_angle_alpha    90
_cell_angle_beta     90
_cell_angle_gamma    117.882

_symmetry_Int_Tables_number  63
_chemical_formula_structural  VH
_chemical_formula_sum  V2H2
_cell_volume  31.9468122741756
_cell_formula_units_Z  2
loop_
  _symmetry_equiv_pos_site_id
 _symmetry_equiv_pos_as_xyz
 1  'x, y, z'
loop_
 _atom_site_type_symbol
 _atom_site_label
 _atom_site_symmetry_multiplicity
 _atom_site_fract_x
 _atom_site_fract_y
 _atom_site_fract_z
 _atom_site_fract_occupancy
 H  H1  1  0.32776  0.65552  0.25000  1
 H  H2  1  0.67224  0.34448  0.75000  1
 V  V1  1  0.00000  0.00000  0.50000  1
 V  V2  1  0.00000  0.00000  0.00000  1
