CIF file written using JARVIS-Tools package.
data_SiO2
_symmetry_space_group_name_H-M  'Pbcn'
_cell_length_a       4.10756
_cell_length_b       4.53148
_cell_length_c       5.07961
_cell_angle_alpha    90
_cell_angle_beta     90
_cell_angle_gamma    90

_symmetry_Int_Tables_number  60
_chemical_formula_structural  SiO2
_chemical_formula_sum  Si4O8
_cell_volume  94.54861527183847
_cell_formula_units_Z  4
loop_
  _symmetry_equiv_pos_site_id
 _symmetry_equiv_pos_as_xyz
 1  'x, y, z'
loop_
 _atom_site_type_symbol
 _atom_site_label
 _atom_site_symmetry_multiplicity
 _atom_site_fract_x
 _atom_site_fract_y
 _atom_site_fract_z
 _atom_site_fract_occupancy
 O  O1  1  0.26881  0.91959  0.38243  1
 O  O2  1  0.23119  0.91959  0.88243  1
 O  O3  1  0.73119  0.08041  0.61757  1
 O  O4  1  0.76881  0.08041  0.11757  1
 O  O5  1  0.73119  0.58041  0.38243  1
 O  O6  1  0.23119  0.41959  0.11757  1
 O  O7  1  0.26881  0.41959  0.61757  1
 O  O8  1  0.76881  0.58041  0.88243  1
 Si  Si1  1  0.50000  0.25000  0.34700  1
 Si  Si2  1  0.50000  0.75000  0.65300  1
 Si  Si3  1  0.00000  0.75000  0.15300  1
 Si  Si4  1  0.00000  0.25000  0.84700  1
