CIF file written using JARVIS-Tools package.
data_HoAl4Ni
_symmetry_space_group_name_H-M  'Cmcm'
_cell_length_a       4.05934
_cell_length_b       6.64263
_cell_length_c       7.95195
_cell_angle_alpha    90
_cell_angle_beta     104.788
_cell_angle_gamma    90

_symmetry_Int_Tables_number  63
_chemical_formula_structural  HoAl4Ni
_chemical_formula_sum  Ho2Al8Ni2
_cell_volume  207.3199366281842
_cell_formula_units_Z  2
loop_
  _symmetry_equiv_pos_site_id
 _symmetry_equiv_pos_as_xyz
 1  'x, y, z'
loop_
 _atom_site_type_symbol
 _atom_site_label
 _atom_site_symmetry_multiplicity
 _atom_site_fract_x
 _atom_site_fract_y
 _atom_site_fract_z
 _atom_site_fract_occupancy
 Al  Al1  1  0.50000  0.00000  0.00000  1
 Al  Al2  1  0.50000  0.50000  0.00000  1
 Al  Al3  1  0.07568  0.25000  0.15136  1
 Al  Al4  1  0.92432  0.75000  0.84864  1
 Al  Al5  1  0.68838  0.05220  0.37676  1
 Al  Al6  1  0.31162  0.94780  0.62324  1
 Al  Al7  1  0.31162  0.55220  0.62324  1
 Al  Al8  1  0.68838  0.44780  0.37676  1
 Ho  Ho1  1  0.11780  0.75000  0.23560  1
 Ho  Ho2  1  0.88220  0.25000  0.76440  1
 Ni  Ni1  1  0.77336  0.75000  0.54671  1
 Ni  Ni2  1  0.22664  0.25000  0.45329  1
