CIF file written using JARVIS-Tools package.
data_YAu2
_symmetry_space_group_name_H-M  'I4/mmm'
_cell_length_a       3.73933
_cell_length_b       3.73933
_cell_length_c       5.24052
_cell_angle_alpha    110.902
_cell_angle_beta     110.902
_cell_angle_gamma    90

_symmetry_Int_Tables_number  139
_chemical_formula_structural  YAu2
_chemical_formula_sum  YAu2
_cell_volume  63.265363164173245
_cell_formula_units_Z  1
loop_
  _symmetry_equiv_pos_site_id
 _symmetry_equiv_pos_as_xyz
 1  'x, y, z'
loop_
 _atom_site_type_symbol
 _atom_site_label
 _atom_site_symmetry_multiplicity
 _atom_site_fract_x
 _atom_site_fract_y
 _atom_site_fract_z
 _atom_site_fract_occupancy
 Au  Au1  1  0.66472  0.66472  0.32944  1
 Au  Au2  1  0.33528  0.33528  0.67056  1
 Y  Y1  1  0.00000  0.00000  0.00000  1
