CIF file written using JARVIS-Tools package.
data_Li2V3CuO8
_symmetry_space_group_name_H-M  'R-3m'
_cell_length_a       5.98326
_cell_length_b       5.98325
_cell_length_c       5.98326
_cell_angle_alpha    57.4547
_cell_angle_beta     57.4547
_cell_angle_gamma    57.4547

_symmetry_Int_Tables_number  166
_chemical_formula_structural  Li2V3CuO8
_chemical_formula_sum  Li2V3CuO8
_cell_volume  142.59166639199202
_cell_formula_units_Z  1
loop_
  _symmetry_equiv_pos_site_id
 _symmetry_equiv_pos_as_xyz
 1  'x, y, z'
loop_
 _atom_site_type_symbol
 _atom_site_label
 _atom_site_symmetry_multiplicity
 _atom_site_fract_x
 _atom_site_fract_y
 _atom_site_fract_z
 _atom_site_fract_occupancy
 Cu  Cu1  1  0.50000  0.50000  0.50000  1
 Li  Li1  1  0.12419  0.12419  0.12419  1
 Li  Li2  1  0.87581  0.87581  0.87581  1
 O  O1  1  0.26003  0.26003  0.26003  1
 O  O2  1  0.25005  0.25005  0.71415  1
 O  O3  1  0.25005  0.71415  0.25005  1
 O  O4  1  0.71415  0.25005  0.25005  1
 O  O5  1  0.28585  0.74995  0.74995  1
 O  O6  1  0.74995  0.28585  0.74995  1
 O  O7  1  0.74995  0.74995  0.28585  1
 O  O8  1  0.73997  0.73997  0.73997  1
 V  V1  1  -0.00000  0.50000  0.50000  1
 V  V2  1  0.50000  -0.00000  0.50000  1
 V  V3  1  0.50000  0.50000  -0.00000  1
