CIF file written using JARVIS-Tools package.
data_TiZnBi2O6
_symmetry_space_group_name_H-M  'P4mm'
_cell_length_a       4.9234
_cell_length_b       5.28706
_cell_length_c       5.28705
_cell_angle_alpha    90
_cell_angle_beta     90
_cell_angle_gamma    90.0002

_symmetry_Int_Tables_number  99
_chemical_formula_structural  TiZnBi2O6
_chemical_formula_sum  TiZnBi2O6
_cell_volume  137.62349843267904
_cell_formula_units_Z  1
loop_
  _symmetry_equiv_pos_site_id
 _symmetry_equiv_pos_as_xyz
 1  'x, y, z'
loop_
 _atom_site_type_symbol
 _atom_site_label
 _atom_site_symmetry_multiplicity
 _atom_site_fract_x
 _atom_site_fract_y
 _atom_site_fract_z
 _atom_site_fract_occupancy
 Bi  Bi1  1  0.00671  -0.00000  0.50000  1
 Bi  Bi2  1  0.00671  0.50000  0.00000  1
 O  O1  1  0.72604  0.74292  0.74292  1
 O  O2  1  0.72604  0.74292  0.25708  1
 O  O3  1  0.16881  -0.00000  0.00000  1
 O  O4  1  0.22025  0.50000  0.50000  1
 O  O5  1  0.72604  0.25708  0.25708  1
 O  O6  1  0.72604  0.25708  0.74292  1
 Ti  Ti1  1  0.58500  0.50000  0.50000  1
 Zn  Zn1  1  0.55536  0.00000  0.00000  1
