CIF file written using JARVIS-Tools package.
data_KIn6Au4
_symmetry_space_group_name_H-M  'P-6m2'
_cell_length_a       8.28256
_cell_length_b       8.28256
_cell_length_c       4.48584
_cell_angle_alpha    90
_cell_angle_beta     90
_cell_angle_gamma    120

_symmetry_Int_Tables_number  187
_chemical_formula_structural  KIn6Au4
_chemical_formula_sum  KIn6Au4
_cell_volume  266.5039348865405
_cell_formula_units_Z  1
loop_
  _symmetry_equiv_pos_site_id
 _symmetry_equiv_pos_as_xyz
 1  'x, y, z'
loop_
 _atom_site_type_symbol
 _atom_site_label
 _atom_site_symmetry_multiplicity
 _atom_site_fract_x
 _atom_site_fract_y
 _atom_site_fract_z
 _atom_site_fract_occupancy
 Au  Au1  1  0.79897  0.59794  0.50000  1
 Au  Au2  1  0.79897  0.20103  0.50000  1
 Au  Au3  1  0.40206  0.20103  0.50000  1
 Au  Au4  1  0.33333  0.66667  0.00000  1
 In  In1  1  0.53514  0.07028  0.00000  1
 In  In2  1  0.19548  0.80452  0.50000  1
 In  In3  1  0.92972  0.46486  0.00000  1
 In  In4  1  0.53514  0.46486  0.00000  1
 In  In5  1  0.60905  0.80452  0.50000  1
 In  In6  1  0.19548  0.39095  0.50000  1
 K  K1  1  0.00000  0.00000  0.00000  1
