CIF file written using JARVIS-Tools package.
data_NbInS2
_symmetry_space_group_name_H-M  'P-6m2'
_cell_length_a       3.35046
_cell_length_b       3.35046
_cell_length_c       8.8895
_cell_angle_alpha    90
_cell_angle_beta     90
_cell_angle_gamma    120

_symmetry_Int_Tables_number  187
_chemical_formula_structural  NbInS2
_chemical_formula_sum  NbInS2
_cell_volume  86.42010320148826
_cell_formula_units_Z  1
loop_
  _symmetry_equiv_pos_site_id
 _symmetry_equiv_pos_as_xyz
 1  'x, y, z'
loop_
 _atom_site_type_symbol
 _atom_site_label
 _atom_site_symmetry_multiplicity
 _atom_site_fract_x
 _atom_site_fract_y
 _atom_site_fract_z
 _atom_site_fract_occupancy
 In  In1  1  0.00000  0.00000  0.00000  1
 Nb  Nb1  1  0.33333  0.66667  0.50000  1
 S  S1  1  0.00000  0.00000  0.32305  1
 S  S2  1  0.00000  0.00000  0.67695  1
