CIF file written using JARVIS-Tools package.
data_ScZn3
_symmetry_space_group_name_H-M  'P6_3/mmc'
_cell_length_a       5.90086
_cell_length_b       5.90086
_cell_length_c       4.38364
_cell_angle_alpha    90
_cell_angle_beta     90
_cell_angle_gamma    120

_symmetry_Int_Tables_number  194
_chemical_formula_structural  ScZn3
_chemical_formula_sum  Sc2Zn6
_cell_volume  132.18955378748734
_cell_formula_units_Z  2
loop_
  _symmetry_equiv_pos_site_id
 _symmetry_equiv_pos_as_xyz
 1  'x, y, z'
loop_
 _atom_site_type_symbol
 _atom_site_label
 _atom_site_symmetry_multiplicity
 _atom_site_fract_x
 _atom_site_fract_y
 _atom_site_fract_z
 _atom_site_fract_occupancy
 Sc  Sc1  1  0.33333  0.66667  0.75000  1
 Sc  Sc2  1  0.66667  0.33333  0.25000  1
 Zn  Zn1  1  0.31967  0.15984  0.75000  1
 Zn  Zn2  1  0.84016  0.15984  0.75000  1
 Zn  Zn3  1  0.68033  0.84016  0.25000  1
 Zn  Zn4  1  0.15984  0.84016  0.25000  1
 Zn  Zn5  1  0.15984  0.31967  0.25000  1
 Zn  Zn6  1  0.84016  0.68033  0.75000  1
