CIF file written using JARVIS-Tools package.
data_NdNi2As2
_symmetry_space_group_name_H-M  'P4/nmm'
_cell_length_a       4.23842
_cell_length_b       4.23842
_cell_length_c       9.45616
_cell_angle_alpha    90
_cell_angle_beta     90
_cell_angle_gamma    90

_symmetry_Int_Tables_number  129
_chemical_formula_structural  NdNi2As2
_chemical_formula_sum  Nd2Ni4As4
_cell_volume  169.87216338072466
_cell_formula_units_Z  2
loop_
  _symmetry_equiv_pos_site_id
 _symmetry_equiv_pos_as_xyz
 1  'x, y, z'
loop_
 _atom_site_type_symbol
 _atom_site_label
 _atom_site_symmetry_multiplicity
 _atom_site_fract_x
 _atom_site_fract_y
 _atom_site_fract_z
 _atom_site_fract_occupancy
 As  As1  1  0.00000  0.50000  0.12863  1
 As  As2  1  0.50000  0.00000  0.87137  1
 As  As3  1  0.00000  0.00000  0.50000  1
 As  As4  1  0.50000  0.50000  0.50000  1
 Nd  Nd1  1  0.00000  0.50000  0.75290  1
 Nd  Nd2  1  0.50000  0.00000  0.24710  1
 Ni  Ni1  1  0.00000  0.00000  0.00000  1
 Ni  Ni2  1  0.50000  0.50000  0.00000  1
 Ni  Ni3  1  0.00000  0.50000  0.38129  1
 Ni  Ni4  1  0.50000  0.00000  0.61871  1
