CIF file written using JARVIS-Tools package.
data_CeSi2Ir2
_symmetry_space_group_name_H-M  'P4/nmm'
_cell_length_a       4.17621
_cell_length_b       4.17621
_cell_length_c       9.91359
_cell_angle_alpha    90
_cell_angle_beta     90
_cell_angle_gamma    90

_symmetry_Int_Tables_number  129
_chemical_formula_structural  CeSi2Ir2
_chemical_formula_sum  Ce2Si4Ir4
_cell_volume  172.90056298136108
_cell_formula_units_Z  2
loop_
  _symmetry_equiv_pos_site_id
 _symmetry_equiv_pos_as_xyz
 1  'x, y, z'
loop_
 _atom_site_type_symbol
 _atom_site_label
 _atom_site_symmetry_multiplicity
 _atom_site_fract_x
 _atom_site_fract_y
 _atom_site_fract_z
 _atom_site_fract_occupancy
 Ce  Ce1  1  0.50000  0.00000  0.75539  1
 Ce  Ce2  1  0.00000  0.50000  0.24461  1
 Ir  Ir1  1  0.00000  0.50000  0.87271  1
 Ir  Ir2  1  0.50000  0.50000  0.50000  1
 Ir  Ir3  1  0.00000  0.00000  0.50000  1
 Ir  Ir4  1  0.50000  0.00000  0.12729  1
 Si  Si1  1  0.50000  0.00000  0.36968  1
 Si  Si2  1  0.50000  0.50000  0.00000  1
 Si  Si3  1  0.00000  0.50000  0.63032  1
 Si  Si4  1  0.00000  0.00000  0.00000  1
