CIF file written using JARVIS-Tools package.
data_Pa3Al
_symmetry_space_group_name_H-M  'I4/mmm'
_cell_length_a       5.57862
_cell_length_b       5.57862
_cell_length_c       5.57862
_cell_angle_alpha    131.916
_cell_angle_beta     131.916
_cell_angle_gamma    70.3612

_symmetry_Int_Tables_number  139
_chemical_formula_structural  Pa3Al
_chemical_formula_sum  Pa3Al
_cell_volume  94.20878607613282
_cell_formula_units_Z  1
loop_
  _symmetry_equiv_pos_site_id
 _symmetry_equiv_pos_as_xyz
 1  'x, y, z'
loop_
 _atom_site_type_symbol
 _atom_site_label
 _atom_site_symmetry_multiplicity
 _atom_site_fract_x
 _atom_site_fract_y
 _atom_site_fract_z
 _atom_site_fract_occupancy
 Al  Al1  1  0.00000  0.00000  0.00000  1
 Pa  Pa1  1  0.75000  0.25000  0.50000  1
 Pa  Pa2  1  0.25000  0.75000  0.50000  1
 Pa  Pa3  1  0.50000  0.50000  0.00000  1
