CIF file written using JARVIS-Tools package.
data_MgSiO3
_symmetry_space_group_name_H-M  'R-3'
_cell_length_a       5.31847
_cell_length_b       5.31847
_cell_length_c       5.31847
_cell_angle_alpha    53.3712
_cell_angle_beta     53.3712
_cell_angle_gamma    53.3712

_symmetry_Int_Tables_number  148
_chemical_formula_structural  MgSiO3
_chemical_formula_sum  Mg2Si2O6
_cell_volume  89.86900179874868
_cell_formula_units_Z  2
loop_
  _symmetry_equiv_pos_site_id
 _symmetry_equiv_pos_as_xyz
 1  'x, y, z'
loop_
 _atom_site_type_symbol
 _atom_site_label
 _atom_site_symmetry_multiplicity
 _atom_site_fract_x
 _atom_site_fract_y
 _atom_site_fract_z
 _atom_site_fract_occupancy
 Mg  Mg1  1  0.35981  0.35981  0.35981  1
 Mg  Mg2  1  0.64019  0.64019  0.64019  1
 O  O1  1  0.04570  0.79478  0.43787  1
 O  O2  1  0.79478  0.43787  0.04570  1
 O  O3  1  0.43787  0.04570  0.79478  1
 O  O4  1  0.95430  0.20522  0.56213  1
 O  O5  1  0.56213  0.95430  0.20522  1
 O  O6  1  0.20522  0.56213  0.95430  1
 Si  Si1  1  0.15725  0.15725  0.15725  1
 Si  Si2  1  0.84275  0.84275  0.84275  1
