CIF file written using JARVIS-Tools package.
data_YHO2
_symmetry_space_group_name_H-M  'Pnma'
_cell_length_a       3.52841
_cell_length_b       5.03786
_cell_length_c       10.9297
_cell_angle_alpha    90
_cell_angle_beta     90
_cell_angle_gamma    90

_symmetry_Int_Tables_number  62
_chemical_formula_structural  YHO2
_chemical_formula_sum  Y4H4O8
_cell_volume  194.28175978792095
_cell_formula_units_Z  4
loop_
  _symmetry_equiv_pos_site_id
 _symmetry_equiv_pos_as_xyz
 1  'x, y, z'
loop_
 _atom_site_type_symbol
 _atom_site_label
 _atom_site_symmetry_multiplicity
 _atom_site_fract_x
 _atom_site_fract_y
 _atom_site_fract_z
 _atom_site_fract_occupancy
 H  H1  1  0.25000  0.13537  0.59930  1
 H  H2  1  0.25000  0.36463  0.09930  1
 H  H3  1  0.75000  0.63537  0.90070  1
 H  H4  1  0.75000  0.86463  0.40070  1
 O  O1  1  0.25000  0.17754  0.06740  1
 O  O2  1  0.75000  0.15163  0.31081  1
 O  O3  1  0.75000  0.34837  0.81081  1
 O  O4  1  0.25000  0.32246  0.56740  1
 O  O5  1  0.75000  0.67754  0.43260  1
 O  O6  1  0.25000  0.65163  0.18919  1
 O  O7  1  0.25000  0.84837  0.68919  1
 O  O8  1  0.75000  0.82246  0.93260  1
 Y  Y1  1  0.25000  0.09994  0.85617  1
 Y  Y2  1  0.25000  0.40006  0.35617  1
 Y  Y3  1  0.75000  0.59994  0.64383  1
 Y  Y4  1  0.75000  0.90006  0.14383  1
