CIF file written using JARVIS-Tools package.
data_ZrSbPd
_symmetry_space_group_name_H-M  'Pnma'
_cell_length_a       4.3676
_cell_length_b       6.84407
_cell_length_c       8.03695
_cell_angle_alpha    90
_cell_angle_beta     90
_cell_angle_gamma    90

_symmetry_Int_Tables_number  62
_chemical_formula_structural  ZrSbPd
_chemical_formula_sum  Zr4Sb4Pd4
_cell_volume  240.24192862615337
_cell_formula_units_Z  4
loop_
  _symmetry_equiv_pos_site_id
 _symmetry_equiv_pos_as_xyz
 1  'x, y, z'
loop_
 _atom_site_type_symbol
 _atom_site_label
 _atom_site_symmetry_multiplicity
 _atom_site_fract_x
 _atom_site_fract_y
 _atom_site_fract_z
 _atom_site_fract_occupancy
 Pd  Pd1  1  0.75000  0.33500  0.07364  1
 Pd  Pd2  1  0.25000  0.66500  0.92636  1
 Pd  Pd3  1  0.75000  0.83500  0.42636  1
 Pd  Pd4  1  0.25000  0.16500  0.57364  1
 Sb  Sb1  1  0.75000  0.73625  0.10547  1
 Sb  Sb2  1  0.25000  0.26375  0.89453  1
 Sb  Sb3  1  0.75000  0.23625  0.39453  1
 Sb  Sb4  1  0.25000  0.76375  0.60547  1
 Zr  Zr1  1  0.75000  0.48189  0.69799  1
 Zr  Zr2  1  0.25000  0.51811  0.30201  1
 Zr  Zr3  1  0.75000  0.98189  0.80201  1
 Zr  Zr4  1  0.25000  0.01811  0.19799  1
