CIF file written using JARVIS-Tools package.
data_OsS2
_symmetry_space_group_name_H-M  'Pa-3'
_cell_length_a       5.68958
_cell_length_b       5.68958
_cell_length_c       5.68958
_cell_angle_alpha    90
_cell_angle_beta     90
_cell_angle_gamma    90

_symmetry_Int_Tables_number  205
_chemical_formula_structural  OsS2
_chemical_formula_sum  Os4S8
_cell_volume  184.17908915649562
_cell_formula_units_Z  4
loop_
  _symmetry_equiv_pos_site_id
 _symmetry_equiv_pos_as_xyz
 1  'x, y, z'
loop_
 _atom_site_type_symbol
 _atom_site_label
 _atom_site_symmetry_multiplicity
 _atom_site_fract_x
 _atom_site_fract_y
 _atom_site_fract_z
 _atom_site_fract_occupancy
 Os  Os1  1  0.00000  0.50000  0.50000  1
 Os  Os2  1  0.50000  0.50000  0.00000  1
 Os  Os3  1  0.50000  0.00000  0.50000  1
 Os  Os4  1  0.00000  0.00000  0.00000  1
 S  S1  1  0.38339  0.11661  0.88339  1
 S  S2  1  0.11661  0.88339  0.38339  1
 S  S3  1  0.88339  0.38339  0.11661  1
 S  S4  1  0.61661  0.61661  0.61661  1
 S  S5  1  0.38339  0.38339  0.38339  1
 S  S6  1  0.11661  0.61661  0.88339  1
 S  S7  1  0.88339  0.11661  0.61661  1
 S  S8  1  0.61661  0.88339  0.11661  1
