CIF file written using JARVIS-Tools package.
data_KSnS2
_symmetry_space_group_name_H-M  'R3m'
_cell_length_a       7.8389
_cell_length_b       7.8389
_cell_length_c       7.8389
_cell_angle_alpha    29.4615
_cell_angle_beta     29.4615
_cell_angle_gamma    29.4615

_symmetry_Int_Tables_number  160
_chemical_formula_structural  KSnS2
_chemical_formula_sum  KSnS2
_cell_volume  103.13252200143839
_cell_formula_units_Z  1
loop_
  _symmetry_equiv_pos_site_id
 _symmetry_equiv_pos_as_xyz
 1  'x, y, z'
loop_
 _atom_site_type_symbol
 _atom_site_label
 _atom_site_symmetry_multiplicity
 _atom_site_fract_x
 _atom_site_fract_y
 _atom_site_fract_z
 _atom_site_fract_occupancy
 K  K1  1  0.83446  0.83446  0.83446  1
 S  S1  1  0.59976  0.59976  0.59976  1
 S  S2  1  0.40374  0.40374  0.40374  1
 Sn  Sn1  1  0.00205  0.00205  0.00205  1
