CIF file written using JARVIS-Tools package.
data_Lu2OsPd
_symmetry_space_group_name_H-M  'Fm-3m'
_cell_length_a       4.75847
_cell_length_b       4.75847
_cell_length_c       4.75845
_cell_angle_alpha    60
_cell_angle_beta     60.0003
_cell_angle_gamma    59.9989

_symmetry_Int_Tables_number  225
_chemical_formula_structural  Lu2OsPd
_chemical_formula_sum  Lu2OsPd
_cell_volume  76.18745945721008
_cell_formula_units_Z  1
loop_
  _symmetry_equiv_pos_site_id
 _symmetry_equiv_pos_as_xyz
 1  'x, y, z'
loop_
 _atom_site_type_symbol
 _atom_site_label
 _atom_site_symmetry_multiplicity
 _atom_site_fract_x
 _atom_site_fract_y
 _atom_site_fract_z
 _atom_site_fract_occupancy
 Lu  Lu1  1  0.00001  1.00000  0.99999  1
 Lu  Lu2  1  0.49999  0.50000  0.50001  1
 Os  Os1  1  0.25001  0.25000  0.25000  1
 Pd  Pd1  1  0.75000  0.75001  0.75000  1
