CIF file written using JARVIS-Tools package.
data_P
_symmetry_space_group_name_H-M  'R-3m'
_cell_length_a       3.83717
_cell_length_b       3.83717
_cell_length_c       3.83717
_cell_angle_alpha    54.1545
_cell_angle_beta     54.1546
_cell_angle_gamma    54.1546

_symmetry_Int_Tables_number  166
_chemical_formula_structural  P
_chemical_formula_sum  P2
_cell_volume  34.49865010151451
_cell_formula_units_Z  2
loop_
  _symmetry_equiv_pos_site_id
 _symmetry_equiv_pos_as_xyz
 1  'x, y, z'
loop_
 _atom_site_type_symbol
 _atom_site_label
 _atom_site_symmetry_multiplicity
 _atom_site_fract_x
 _atom_site_fract_y
 _atom_site_fract_z
 _atom_site_fract_occupancy
 P  P1  1  0.22552  0.22552  0.22552  1
 P  P2  1  0.77448  0.77448  0.77448  1
