CIF file written using JARVIS-Tools package.
data_C
_symmetry_space_group_name_H-M  'Cmmm'
_cell_length_a       3.69135
_cell_length_b       3.69134
_cell_length_c       4.27196
_cell_angle_alpha    90
_cell_angle_beta     90
_cell_angle_gamma    97.0543

_symmetry_Int_Tables_number  65
_chemical_formula_structural  C
_chemical_formula_sum  C8
_cell_volume  57.76910953023095
_cell_formula_units_Z  8
loop_
  _symmetry_equiv_pos_site_id
 _symmetry_equiv_pos_as_xyz
 1  'x, y, z'
loop_
 _atom_site_type_symbol
 _atom_site_label
 _atom_site_symmetry_multiplicity
 _atom_site_fract_x
 _atom_site_fract_y
 _atom_site_fract_z
 _atom_site_fract_occupancy
 C  C1  1  0.15138  0.84862  0.31940  1
 C  C2  1  0.84862  0.15138  0.68060  1
 C  C3  1  0.84862  0.15138  0.31940  1
 C  C4  1  0.15138  0.84862  0.68060  1
 C  C5  1  0.50000  0.00000  0.84297  1
 C  C6  1  0.50000  0.00000  0.15703  1
 C  C7  1  -0.00000  0.50000  0.15703  1
 C  C8  1  -0.00000  0.50000  0.84297  1
