CIF file written using JARVIS-Tools package.
data_ScGa5Ni
_symmetry_space_group_name_H-M  'P4/mmm'
_cell_length_a       4.18261
_cell_length_b       4.18261
_cell_length_c       6.58226
_cell_angle_alpha    90
_cell_angle_beta     90
_cell_angle_gamma    90

_symmetry_Int_Tables_number  123
_chemical_formula_structural  ScGa5Ni
_chemical_formula_sum  ScGa5Ni
_cell_volume  115.15151770885478
_cell_formula_units_Z  1
loop_
  _symmetry_equiv_pos_site_id
 _symmetry_equiv_pos_as_xyz
 1  'x, y, z'
loop_
 _atom_site_type_symbol
 _atom_site_label
 _atom_site_symmetry_multiplicity
 _atom_site_fract_x
 _atom_site_fract_y
 _atom_site_fract_z
 _atom_site_fract_occupancy
 Ga  Ga1  1  0.00000  0.50000  0.29872  1
 Ga  Ga2  1  0.00000  0.50000  0.70128  1
 Ga  Ga3  1  0.50000  0.00000  0.29872  1
 Ga  Ga4  1  0.50000  0.00000  0.70128  1
 Ga  Ga5  1  0.50000  0.50000  0.00000  1
 Ni  Ni1  1  0.00000  0.00000  0.50000  1
 Sc  Sc1  1  0.00000  0.00000  0.00000  1
