CIF file written using JARVIS-Tools package.
data_Sr
_symmetry_space_group_name_H-M  'P6_3/mmc'
_cell_length_a       4.20444
_cell_length_b       4.20444
_cell_length_c       13.779
_cell_angle_alpha    90
_cell_angle_beta     90
_cell_angle_gamma    120

_symmetry_Int_Tables_number  194
_chemical_formula_structural  Sr
_chemical_formula_sum  Sr4
_cell_volume  210.9424625142165
_cell_formula_units_Z  4
loop_
  _symmetry_equiv_pos_site_id
 _symmetry_equiv_pos_as_xyz
 1  'x, y, z'
loop_
 _atom_site_type_symbol
 _atom_site_label
 _atom_site_symmetry_multiplicity
 _atom_site_fract_x
 _atom_site_fract_y
 _atom_site_fract_z
 _atom_site_fract_occupancy
 Sr  Sr1  1  0.00000  0.00000  0.00000  1
 Sr  Sr2  1  0.33333  0.66667  0.25000  1
 Sr  Sr3  1  0.00000  0.00000  0.50000  1
 Sr  Sr4  1  0.66667  0.33333  0.75000  1
