CIF file written using JARVIS-Tools package.
data_ErAgSn
_symmetry_space_group_name_H-M  'P6_3mc'
_cell_length_a       4.69285
_cell_length_b       4.69285
_cell_length_c       7.33829
_cell_angle_alpha    90
_cell_angle_beta     90
_cell_angle_gamma    120

_symmetry_Int_Tables_number  186
_chemical_formula_structural  ErAgSn
_chemical_formula_sum  Er2Ag2Sn2
_cell_volume  139.95830578967568
_cell_formula_units_Z  2
loop_
  _symmetry_equiv_pos_site_id
 _symmetry_equiv_pos_as_xyz
 1  'x, y, z'
loop_
 _atom_site_type_symbol
 _atom_site_label
 _atom_site_symmetry_multiplicity
 _atom_site_fract_x
 _atom_site_fract_y
 _atom_site_fract_z
 _atom_site_fract_occupancy
 Ag  Ag1  1  0.33333  0.66667  0.93766  1
 Ag  Ag2  1  0.66667  0.33333  0.43766  1
 Er  Er1  1  0.00000  0.00000  0.75506  1
 Er  Er2  1  0.00000  0.00000  0.25506  1
 Sn  Sn1  1  0.33333  0.66667  0.53428  1
 Sn  Sn2  1  0.66667  0.33333  0.03428  1
