CIF file written using JARVIS-Tools package.
data_NiRhF6
_symmetry_space_group_name_H-M  'R-3'
_cell_length_a       5.32905
_cell_length_b       5.32904
_cell_length_c       5.32905
_cell_angle_alpha    54.561
_cell_angle_beta     54.5611
_cell_angle_gamma    54.561

_symmetry_Int_Tables_number  148
_chemical_formula_structural  NiRhF6
_chemical_formula_sum  NiRhF6
_cell_volume  93.4462928244331
_cell_formula_units_Z  1
loop_
  _symmetry_equiv_pos_site_id
 _symmetry_equiv_pos_as_xyz
 1  'x, y, z'
loop_
 _atom_site_type_symbol
 _atom_site_label
 _atom_site_symmetry_multiplicity
 _atom_site_fract_x
 _atom_site_fract_y
 _atom_site_fract_z
 _atom_site_fract_occupancy
 F  F1  1  0.40404  0.09409  0.75264  1
 F  F2  1  0.09409  0.75264  0.40404  1
 F  F3  1  0.24736  0.59596  0.90591  1
 F  F4  1  0.90591  0.24736  0.59596  1
 F  F5  1  0.59596  0.90591  0.24736  1
 F  F6  1  0.75264  0.40404  0.09409  1
 Ni  Ni1  1  0.50000  0.50000  0.50000  1
 Rh  Rh1  1  0.00000  0.00000  0.00000  1
