CIF file written using JARVIS-Tools package.
data_TeMoWSe2S
_symmetry_space_group_name_H-M  'P3m1'
_cell_length_a       3.3503
_cell_length_b       3.3503
_cell_length_c       36.1609
_cell_angle_alpha    90.0007
_cell_angle_beta     89.9999
_cell_angle_gamma    120

_symmetry_Int_Tables_number  156
_chemical_formula_structural  TeMoWSe2S
_chemical_formula_sum  Te2Mo2W2Se4S2
_cell_volume  351.5078595964272
_cell_formula_units_Z  2
loop_
  _symmetry_equiv_pos_site_id
 _symmetry_equiv_pos_as_xyz
 1  'x, y, z'
loop_
 _atom_site_type_symbol
 _atom_site_label
 _atom_site_symmetry_multiplicity
 _atom_site_fract_x
 _atom_site_fract_y
 _atom_site_fract_z
 _atom_site_fract_occupancy
 Mo  Mo1  1  0.33328  0.66661  0.09457  1
 Mo  Mo2  1  0.66671  0.33339  0.65512  1
 S  S1  1  0.66660  0.33326  0.05266  1
 S  S2  1  0.66662  0.33329  0.13654  1
 Se  Se1  1  0.33339  0.66674  0.70113  1
 Se  Se2  1  0.66667  0.33333  0.42687  1
 Se  Se3  1  0.66669  0.33336  0.51948  1
 Se  Se4  1  0.33336  0.66670  0.60905  1
 Te  Te1  1  0.33333  0.66667  0.33289  1
 Te  Te2  1  0.33333  0.66666  0.22718  1
 W  W1  1  0.33335  0.66667  0.47318  1
 W  W2  1  0.66666  0.33333  0.28007  1
