CIF file written using JARVIS-Tools package.
data_MgCu
_symmetry_space_group_name_H-M  'Pm-3m'
_cell_length_a       3.14404
_cell_length_b       4.43871
_cell_length_c       4.44039
_cell_angle_alpha    90
_cell_angle_beta     90
_cell_angle_gamma    90

_symmetry_Int_Tables_number  221
_chemical_formula_structural  MgCu
_chemical_formula_sum  Mg2Cu2
_cell_volume  61.967794725702305
_cell_formula_units_Z  2
loop_
  _symmetry_equiv_pos_site_id
 _symmetry_equiv_pos_as_xyz
 1  'x, y, z'
loop_
 _atom_site_type_symbol
 _atom_site_label
 _atom_site_symmetry_multiplicity
 _atom_site_fract_x
 _atom_site_fract_y
 _atom_site_fract_z
 _atom_site_fract_occupancy
 Cu  Cu1  1  0.00000  0.00000  0.91682  1
 Cu  Cu2  1  0.00000  0.50000  0.41653  1
 Mg  Mg1  1  0.50000  0.00000  0.41676  1
 Mg  Mg2  1  0.50000  0.50000  0.91656  1
