CIF file written using JARVIS-Tools package.
data_RbCrF6
_symmetry_space_group_name_H-M  'R-3'
_cell_length_a       4.95749
_cell_length_b       4.95749
_cell_length_c       4.95749
_cell_angle_alpha    97.204
_cell_angle_beta     97.2039
_cell_angle_gamma    97.204

_symmetry_Int_Tables_number  148
_chemical_formula_structural  RbCrF6
_chemical_formula_sum  RbCrF6
_cell_volume  118.6832112827442
_cell_formula_units_Z  1
loop_
  _symmetry_equiv_pos_site_id
 _symmetry_equiv_pos_as_xyz
 1  'x, y, z'
loop_
 _atom_site_type_symbol
 _atom_site_label
 _atom_site_symmetry_multiplicity
 _atom_site_fract_x
 _atom_site_fract_y
 _atom_site_fract_z
 _atom_site_fract_occupancy
 Cr  Cr1  1  0.50000  0.50000  0.50000  1
 F  F1  1  0.19736  0.30382  0.57688  1
 F  F2  1  0.30382  0.57688  0.19736  1
 F  F3  1  0.42312  0.80264  0.69618  1
 F  F4  1  0.69618  0.42312  0.80264  1
 F  F5  1  0.80264  0.69618  0.42312  1
 F  F6  1  0.57688  0.19736  0.30382  1
 Rb  Rb1  1  0.00000  0.00000  0.00000  1
