CIF file written using JARVIS-Tools package.
data_CrF2
_symmetry_space_group_name_H-M  'P2_1/c'
_cell_length_a       3.55242
_cell_length_b       4.70072
_cell_length_c       5.54076
_cell_angle_alpha    90
_cell_angle_beta     121.693
_cell_angle_gamma    90

_symmetry_Int_Tables_number  14
_chemical_formula_structural  CrF2
_chemical_formula_sum  Cr2F4
_cell_volume  78.72711053367522
_cell_formula_units_Z  2
loop_
  _symmetry_equiv_pos_site_id
 _symmetry_equiv_pos_as_xyz
 1  'x, y, z'
loop_
 _atom_site_type_symbol
 _atom_site_label
 _atom_site_symmetry_multiplicity
 _atom_site_fract_x
 _atom_site_fract_y
 _atom_site_fract_z
 _atom_site_fract_occupancy
 Cr  Cr1  1  0.00000  0.50000  0.50000  1
 Cr  Cr2  1  0.00000  0.00000  0.00000  1
 F  F1  1  0.75119  0.80289  0.20614  1
 F  F2  1  0.24881  0.30289  0.29386  1
 F  F3  1  0.75119  0.69711  0.70614  1
 F  F4  1  0.24881  0.19711  0.79386  1
