CIF file written using JARVIS-Tools package.
data_Ge
_symmetry_space_group_name_H-M  'I4_1/amd'
_cell_length_a       2.87918
_cell_length_b       3.96559
_cell_length_c       3.9656
_cell_angle_alpha    82.4274
_cell_angle_beta     68.7143
_cell_angle_gamma    68.7143

_symmetry_Int_Tables_number  141
_chemical_formula_structural  Ge
_chemical_formula_sum  Ge2
_cell_volume  39.310933209609495
_cell_formula_units_Z  2
loop_
  _symmetry_equiv_pos_site_id
 _symmetry_equiv_pos_as_xyz
 1  'x, y, z'
loop_
 _atom_site_type_symbol
 _atom_site_label
 _atom_site_symmetry_multiplicity
 _atom_site_fract_x
 _atom_site_fract_y
 _atom_site_fract_z
 _atom_site_fract_occupancy
 Ge  Ge1  1  0.37500  0.25000  0.75000  1
 Ge  Ge2  1  0.62500  0.75000  0.25000  1
