CIF file written using JARVIS-Tools package.
data_MnCr2O4
_symmetry_space_group_name_H-M  'Fd-3m'
_cell_length_a       5.99641
_cell_length_b       5.99641
_cell_length_c       5.99641
_cell_angle_alpha    60
_cell_angle_beta     59.9999
_cell_angle_gamma    60

_symmetry_Int_Tables_number  227
_chemical_formula_structural  MnCr2O4
_chemical_formula_sum  Mn2Cr4O8
_cell_volume  152.46123736785424
_cell_formula_units_Z  2
loop_
  _symmetry_equiv_pos_site_id
 _symmetry_equiv_pos_as_xyz
 1  'x, y, z'
loop_
 _atom_site_type_symbol
 _atom_site_label
 _atom_site_symmetry_multiplicity
 _atom_site_fract_x
 _atom_site_fract_y
 _atom_site_fract_z
 _atom_site_fract_occupancy
 Cr  Cr1  1  0.50000  0.50000  0.50000  1
 Cr  Cr2  1  0.50000  0.50000  0.00000  1
 Cr  Cr3  1  0.00000  0.50000  0.50000  1
 Cr  Cr4  1  0.50000  0.00000  0.50000  1
 Mn  Mn1  1  0.87500  0.87500  0.87500  1
 Mn  Mn2  1  0.12500  0.12500  0.12500  1
 O  O1  1  0.26313  0.26313  0.26313  1
 O  O2  1  0.73687  0.73687  0.28939  1
 O  O3  1  0.28939  0.73687  0.73687  1
 O  O4  1  0.73687  0.28939  0.73687  1
 O  O5  1  0.71061  0.26313  0.26313  1
 O  O6  1  0.26313  0.71061  0.26313  1
 O  O7  1  0.26313  0.26313  0.71061  1
 O  O8  1  0.73687  0.73687  0.73687  1
