CIF file written using JARVIS-Tools package.
data_YGa
_symmetry_space_group_name_H-M  'Cmcm'
_cell_length_a       4.0526
_cell_length_b       4.32335
_cell_length_c       5.84074
_cell_angle_alpha    111.722
_cell_angle_beta     90
_cell_angle_gamma    90

_symmetry_Int_Tables_number  63
_chemical_formula_structural  YGa
_chemical_formula_sum  Y2Ga2
_cell_volume  95.06806177576203
_cell_formula_units_Z  2
loop_
  _symmetry_equiv_pos_site_id
 _symmetry_equiv_pos_as_xyz
 1  'x, y, z'
loop_
 _atom_site_type_symbol
 _atom_site_label
 _atom_site_symmetry_multiplicity
 _atom_site_fract_x
 _atom_site_fract_y
 _atom_site_fract_z
 _atom_site_fract_occupancy
 Ga  Ga1  1  0.75000  0.42267  0.84534  1
 Ga  Ga2  1  0.25000  0.57733  0.15466  1
 Y  Y1  1  0.75000  0.13921  0.27843  1
 Y  Y2  1  0.25000  0.86079  0.72157  1
