CIF file written using JARVIS-Tools package.
data_Rb3Hf
_symmetry_space_group_name_H-M  'Fm-3m'
_cell_length_a       6.74673
_cell_length_b       6.74673
_cell_length_c       6.74673
_cell_angle_alpha    120.027
_cell_angle_beta     120.027
_cell_angle_gamma    89.9533

_symmetry_Int_Tables_number  225
_chemical_formula_structural  Rb3Hf
_chemical_formula_sum  Rb3Hf
_cell_volume  217.06339734976152
_cell_formula_units_Z  1
loop_
  _symmetry_equiv_pos_site_id
 _symmetry_equiv_pos_as_xyz
 1  'x, y, z'
loop_
 _atom_site_type_symbol
 _atom_site_label
 _atom_site_symmetry_multiplicity
 _atom_site_fract_x
 _atom_site_fract_y
 _atom_site_fract_z
 _atom_site_fract_occupancy
 Hf  Hf1  1  0.00000  0.00000  0.00000  1
 Rb  Rb1  1  0.75000  0.25000  0.50000  1
 Rb  Rb2  1  0.25000  0.75000  0.50000  1
 Rb  Rb3  1  0.50000  0.50000  0.00000  1
