CIF file written using JARVIS-Tools package.
data_Tl3V
_symmetry_space_group_name_H-M  'I4/mmm'
_cell_length_a       5.82369
_cell_length_b       5.82369
_cell_length_c       5.82369
_cell_angle_alpha    136.283
_cell_angle_beta     136.283
_cell_angle_gamma    63.5431

_symmetry_Int_Tables_number  139
_chemical_formula_structural  Tl3V
_chemical_formula_sum  Tl3V
_cell_volume  93.10538337694122
_cell_formula_units_Z  1
loop_
  _symmetry_equiv_pos_site_id
 _symmetry_equiv_pos_as_xyz
 1  'x, y, z'
loop_
 _atom_site_type_symbol
 _atom_site_label
 _atom_site_symmetry_multiplicity
 _atom_site_fract_x
 _atom_site_fract_y
 _atom_site_fract_z
 _atom_site_fract_occupancy
 Tl  Tl1  1  0.75000  0.25000  0.50000  1
 Tl  Tl2  1  0.25000  0.75000  0.50000  1
 Tl  Tl3  1  0.50000  0.50000  0.00000  1
 V  V1  1  0.00000  0.00000  0.00000  1
