CIF file written using JARVIS-Tools package.
data_TaRh3
_symmetry_space_group_name_H-M  'Pm-3m'
_cell_length_a       3.89225
_cell_length_b       3.89225
_cell_length_c       3.89225
_cell_angle_alpha    90
_cell_angle_beta     90
_cell_angle_gamma    90

_symmetry_Int_Tables_number  221
_chemical_formula_structural  TaRh3
_chemical_formula_sum  TaRh3
_cell_volume  58.96605345476159
_cell_formula_units_Z  1
loop_
  _symmetry_equiv_pos_site_id
 _symmetry_equiv_pos_as_xyz
 1  'x, y, z'
loop_
 _atom_site_type_symbol
 _atom_site_label
 _atom_site_symmetry_multiplicity
 _atom_site_fract_x
 _atom_site_fract_y
 _atom_site_fract_z
 _atom_site_fract_occupancy
 Rh  Rh1  1  0.00000  0.50000  0.50000  1
 Rh  Rh2  1  0.50000  0.50000  0.00000  1
 Rh  Rh3  1  0.50000  0.00000  0.50000  1
 Ta  Ta1  1  0.00000  0.00000  0.00000  1
