CIF file written using JARVIS-Tools package.
data_ZrInPd2
_symmetry_space_group_name_H-M  'Fm-3m'
_cell_length_a       4.68141
_cell_length_b       4.68217
_cell_length_c       4.68241
_cell_angle_alpha    59.989
_cell_angle_beta     60.002
_cell_angle_gamma    60.0103

_symmetry_Int_Tables_number  225
_chemical_formula_structural  ZrInPd2
_chemical_formula_sum  ZrInPd2
_cell_volume  72.57424166214481
_cell_formula_units_Z  1
loop_
  _symmetry_equiv_pos_site_id
 _symmetry_equiv_pos_as_xyz
 1  'x, y, z'
loop_
 _atom_site_type_symbol
 _atom_site_label
 _atom_site_symmetry_multiplicity
 _atom_site_fract_x
 _atom_site_fract_y
 _atom_site_fract_z
 _atom_site_fract_occupancy
 In  In1  1  0.24999  0.25000  0.25001  1
 Pd  Pd1  1  1.00000  0.00001  0.00005  1
 Pd  Pd2  1  0.50000  0.49998  0.49995  1
 Zr  Zr1  1  0.75001  0.75001  0.74999  1
