CIF file written using JARVIS-Tools package.
data_LiMg
_symmetry_space_group_name_H-M  'Cmmm'
_cell_length_a       3.42287
_cell_length_b       7.48684
_cell_length_c       4.8635
_cell_angle_alpha    90
_cell_angle_beta     90
_cell_angle_gamma    76.7857

_symmetry_Int_Tables_number  65
_chemical_formula_structural  LiMg
_chemical_formula_sum  Li3Mg3
_cell_volume  121.3341747070495
_cell_formula_units_Z  3
loop_
  _symmetry_equiv_pos_site_id
 _symmetry_equiv_pos_as_xyz
 1  'x, y, z'
loop_
 _atom_site_type_symbol
 _atom_site_label
 _atom_site_symmetry_multiplicity
 _atom_site_fract_x
 _atom_site_fract_y
 _atom_site_fract_z
 _atom_site_fract_occupancy
 Li  Li1  1  0.30563  0.38875  0.00000  1
 Li  Li2  1  0.47485  0.05031  0.50000  1
 Li  Li3  1  0.13612  0.72776  0.50000  1
 Mg  Mg1  1  0.96796  0.06408  0.00000  1
 Mg  Mg2  1  0.64328  0.71344  0.00000  1
 Mg  Mg3  1  0.80550  0.38901  0.50000  1
