CIF file written using JARVIS-Tools package.
data_In
_symmetry_space_group_name_H-M  'I4/mmm'
_cell_length_a       3.29467
_cell_length_b       3.29467
_cell_length_c       3.44169
_cell_angle_alpha    118.569
_cell_angle_beta     118.569
_cell_angle_gamma    90.0053

_symmetry_Int_Tables_number  139
_chemical_formula_structural  In
_chemical_formula_sum  In
_cell_volume  27.518388500668916
_cell_formula_units_Z  1
loop_
  _symmetry_equiv_pos_site_id
 _symmetry_equiv_pos_as_xyz
 1  'x, y, z'
loop_
 _atom_site_type_symbol
 _atom_site_label
 _atom_site_symmetry_multiplicity
 _atom_site_fract_x
 _atom_site_fract_y
 _atom_site_fract_z
 _atom_site_fract_occupancy
 In  In1  1  0.00000  0.00000  -0.00000  1
