CIF file written using JARVIS-Tools package.
data_MnBr2
_symmetry_space_group_name_H-M  'R-3m'
_cell_length_a       6.35049
_cell_length_b       6.35049
_cell_length_c       6.35049
_cell_angle_alpha    32.7451
_cell_angle_beta     32.7451
_cell_angle_gamma    32.7451

_symmetry_Int_Tables_number  166
_chemical_formula_structural  MnBr2
_chemical_formula_sum  MnBr2
_cell_volume  66.65454519771633
_cell_formula_units_Z  1
loop_
  _symmetry_equiv_pos_site_id
 _symmetry_equiv_pos_as_xyz
 1  'x, y, z'
loop_
 _atom_site_type_symbol
 _atom_site_label
 _atom_site_symmetry_multiplicity
 _atom_site_fract_x
 _atom_site_fract_y
 _atom_site_fract_z
 _atom_site_fract_occupancy
 Br  Br1  1  0.74341  0.74341  0.74341  1
 Br  Br2  1  0.25659  0.25659  0.25659  1
 Mn  Mn1  1  0.00000  0.00000  0.00000  1
