CIF file written using JARVIS-Tools package.
data_NiPbF6
_symmetry_space_group_name_H-M  'R-3'
_cell_length_a       5.6065
_cell_length_b       5.6065
_cell_length_c       5.60651
_cell_angle_alpha    53.6358
_cell_angle_beta     53.6357
_cell_angle_gamma    53.6358

_symmetry_Int_Tables_number  148
_chemical_formula_structural  NiPbF6
_chemical_formula_sum  NiPbF6
_cell_volume  106.06428644466774
_cell_formula_units_Z  1
loop_
  _symmetry_equiv_pos_site_id
 _symmetry_equiv_pos_as_xyz
 1  'x, y, z'
loop_
 _atom_site_type_symbol
 _atom_site_label
 _atom_site_symmetry_multiplicity
 _atom_site_fract_x
 _atom_site_fract_y
 _atom_site_fract_z
 _atom_site_fract_occupancy
 F  F1  1  0.60250  0.92665  0.23202  1
 F  F2  1  0.92665  0.23202  0.60250  1
 F  F3  1  0.76798  0.39750  0.07335  1
 F  F4  1  0.07335  0.76798  0.39750  1
 F  F5  1  0.39750  0.07335  0.76798  1
 F  F6  1  0.23202  0.60250  0.92665  1
 Ni  Ni1  1  0.00000  0.00000  0.00000  1
 Pb  Pb1  1  0.50000  0.50000  0.50000  1
