CIF file written using JARVIS-Tools package.
data_Mg3Al
_symmetry_space_group_name_H-M  'Pmm2'
_cell_length_a       6.19487
_cell_length_b       3.13476
_cell_length_c       5.03914
_cell_angle_alpha    90
_cell_angle_beta     90
_cell_angle_gamma    120.399

_symmetry_Int_Tables_number  25
_chemical_formula_structural  Mg3Al
_chemical_formula_sum  Mg3Al
_cell_volume  84.40347803601462
_cell_formula_units_Z  1
loop_
  _symmetry_equiv_pos_site_id
 _symmetry_equiv_pos_as_xyz
 1  'x, y, z'
loop_
 _atom_site_type_symbol
 _atom_site_label
 _atom_site_symmetry_multiplicity
 _atom_site_fract_x
 _atom_site_fract_y
 _atom_site_fract_z
 _atom_site_fract_occupancy
 Al  Al1  1  0.16641  0.66641  0.25000  1
 Mg  Mg1  1  0.66741  0.66741  0.25000  1
 Mg  Mg2  1  0.32904  0.32904  0.75000  1
 Mg  Mg3  1  0.83714  0.33714  0.75000  1
