CIF file written using JARVIS-Tools package.
data_Na2Cl
_symmetry_space_group_name_H-M  'R-3m'
_cell_length_a       3.86882
_cell_length_b       3.86882
_cell_length_c       7.00135
_cell_angle_alpha    73.961
_cell_angle_beta     73.961
_cell_angle_gamma    59.9999

_symmetry_Int_Tables_number  166
_chemical_formula_structural  Na2Cl
_chemical_formula_sum  Na2Cl
_cell_volume  86.01249015136737
_cell_formula_units_Z  1
loop_
  _symmetry_equiv_pos_site_id
 _symmetry_equiv_pos_as_xyz
 1  'x, y, z'
loop_
 _atom_site_type_symbol
 _atom_site_label
 _atom_site_symmetry_multiplicity
 _atom_site_fract_x
 _atom_site_fract_y
 _atom_site_fract_z
 _atom_site_fract_occupancy
 Cl  Cl1  1  0.00000  0.00000  0.00000  1
 Na  Na1  1  0.75293  0.75293  0.74122  1
 Na  Na2  1  0.24707  0.24707  0.25878  1
