CIF file written using JARVIS-Tools package.
data_PbI2
_symmetry_space_group_name_H-M  'P6_3mc'
_cell_length_a       4.58386
_cell_length_b       4.58386
_cell_length_c       14.1244
_cell_angle_alpha    90
_cell_angle_beta     90
_cell_angle_gamma    120

_symmetry_Int_Tables_number  186
_chemical_formula_structural  PbI2
_chemical_formula_sum  Pb2I4
_cell_volume  257.0185921132536
_cell_formula_units_Z  2
loop_
  _symmetry_equiv_pos_site_id
 _symmetry_equiv_pos_as_xyz
 1  'x, y, z'
loop_
 _atom_site_type_symbol
 _atom_site_label
 _atom_site_symmetry_multiplicity
 _atom_site_fract_x
 _atom_site_fract_y
 _atom_site_fract_z
 _atom_site_fract_occupancy
 I  I1  1  0.66667  0.33333  0.86569  1
 I  I2  1  0.00000  0.00000  0.13432  1
 I  I3  1  0.00000  0.00000  0.63432  1
 I  I4  1  0.33333  0.66667  0.36569  1
 Pb  Pb1  1  0.66667  0.33333  0.49999  1
 Pb  Pb2  1  0.33333  0.66667  -0.00001  1
