CIF file written using JARVIS-Tools package.
data_CaPuRh2
_symmetry_space_group_name_H-M  'R-3m'
_cell_length_a       5.53606
_cell_length_b       5.53606
_cell_length_c       5.53606
_cell_angle_alpha    47.3621
_cell_angle_beta     47.3621
_cell_angle_gamma    47.3621

_symmetry_Int_Tables_number  166
_chemical_formula_structural  CaPuRh2
_chemical_formula_sum  CaPuRh2
_cell_volume  84.00128511366636
_cell_formula_units_Z  1
loop_
  _symmetry_equiv_pos_site_id
 _symmetry_equiv_pos_as_xyz
 1  'x, y, z'
loop_
 _atom_site_type_symbol
 _atom_site_label
 _atom_site_symmetry_multiplicity
 _atom_site_fract_x
 _atom_site_fract_y
 _atom_site_fract_z
 _atom_site_fract_occupancy
 Ca  Ca1  1  0.25000  0.25000  0.25000  1
 Pu  Pu1  1  0.75000  0.75000  0.75000  1
 Rh  Rh1  1  0.03567  0.03567  0.03567  1
 Rh  Rh2  1  0.46432  0.46432  0.46432  1
