CIF file written using JARVIS-Tools package.
data_CdI2
_symmetry_space_group_name_H-M  'P-3m1'
_cell_length_a       4.28592
_cell_length_b       4.28592
_cell_length_c       55.0373
_cell_angle_alpha    90
_cell_angle_beta     90
_cell_angle_gamma    120

_symmetry_Int_Tables_number  164
_chemical_formula_structural  CdI2
_chemical_formula_sum  Cd8I6
_cell_volume  875.5389542855245
_cell_formula_units_Z  8
loop_
  _symmetry_equiv_pos_site_id
 _symmetry_equiv_pos_as_xyz
 1  'x, y, z'
loop_
 _atom_site_type_symbol
 _atom_site_label
 _atom_site_symmetry_multiplicity
 _atom_site_fract_x
 _atom_site_fract_y
 _atom_site_fract_z
 _atom_site_fract_occupancy
 Cd  Cd1  1  0.33333  0.66667  0.53125  1
 Cd  Cd2  1  0.33333  0.66667  0.78124  1
 Cd  Cd3  1  0.66667  0.33333  0.40627  1
 Cd  Cd4  1  0.33333  0.66667  0.03125  1
 Cd  Cd5  1  0.00000  0.00000  0.65623  1
 Cd  Cd6  1  0.66667  0.33333  0.15627  1
 Cd  Cd7  1  0.00000  0.00000  0.90623  1
 Cd  Cd8  1  0.33333  0.66667  0.28126  1
 I  I1  1  0.33333  0.66667  0.62474  1
 I  I2  1  0.00000  0.00000  0.99974  1
 I  I3  1  0.00000  0.00000  0.37475  1
 I  I4  1  0.66667  0.33333  0.31276  1
 I  I5  1  0.66667  0.33333  0.81275  1
 I  I6  1  0.66667  0.33333  0.56276  1
 I  I7  1  0.33333  0.66667  0.18777  1
 I  I8  1  0.66667  0.33333  0.06276  1
 I  I9  1  0.00000  0.00000  0.12475  1
 I  I10  1  0.66667  0.33333  0.68775  1
 I  I11  1  0.66667  0.33333  0.93775  1
 I  I12  1  0.00000  0.00000  0.74974  1
 I  I13  1  0.33333  0.66667  0.43776  1
 I  I14  1  0.33333  0.66667  0.87473  1
 I  I15  1  0.00000  0.00000  0.24975  1
 I  I16  1  0.00000  0.00000  0.49974  1
