CIF file written using JARVIS-Tools package.
data_Na3Cr
_symmetry_space_group_name_H-M  'I4/mmm'
_cell_length_a       5.88073
_cell_length_b       5.88073
_cell_length_c       5.88073
_cell_angle_alpha    130.013
_cell_angle_beta     130.013
_cell_angle_gamma    73.3861

_symmetry_Int_Tables_number  139
_chemical_formula_structural  Na3Cr
_chemical_formula_sum  Na3Cr
_cell_volume  116.4476609640463
_cell_formula_units_Z  1
loop_
  _symmetry_equiv_pos_site_id
 _symmetry_equiv_pos_as_xyz
 1  'x, y, z'
loop_
 _atom_site_type_symbol
 _atom_site_label
 _atom_site_symmetry_multiplicity
 _atom_site_fract_x
 _atom_site_fract_y
 _atom_site_fract_z
 _atom_site_fract_occupancy
 Cr  Cr1  1  0.00000  0.00000  0.00000  1
 Na  Na1  1  0.50000  0.50000  0.00000  1
 Na  Na2  1  0.25000  0.75000  0.50000  1
 Na  Na3  1  0.75000  0.25000  0.50000  1
