CIF file written using JARVIS-Tools package.
data_MoW3Se6S2
_symmetry_space_group_name_H-M  'P3m1'
_cell_length_a       3.29177
_cell_length_b       3.29178
_cell_length_c       35.044
_cell_angle_alpha    90.0003
_cell_angle_beta     90
_cell_angle_gamma    120

_symmetry_Int_Tables_number  156
_chemical_formula_structural  MoW3Se6S2
_chemical_formula_sum  MoW3Se6S2
_cell_volume  328.855714149832
_cell_formula_units_Z  1
loop_
  _symmetry_equiv_pos_site_id
 _symmetry_equiv_pos_as_xyz
 1  'x, y, z'
loop_
 _atom_site_type_symbol
 _atom_site_label
 _atom_site_symmetry_multiplicity
 _atom_site_fract_x
 _atom_site_fract_y
 _atom_site_fract_z
 _atom_site_fract_occupancy
 Mo  Mo1  1  0.33331  0.66662  0.46878  1
 S  S1  1  0.66665  0.33330  0.05253  1
 S  S2  1  0.66665  0.33331  0.14053  1
 Se  Se1  1  0.33334  0.66667  0.32796  1
 Se  Se2  1  0.33336  0.66672  0.70640  1
 Se  Se3  1  0.66663  0.33326  0.42067  1
 Se  Se4  1  0.66666  0.33332  0.51689  1
 Se  Se5  1  0.33335  0.66671  0.23119  1
 Se  Se6  1  0.33335  0.66671  0.60967  1
 W  W1  1  0.33332  0.66664  0.09651  1
 W  W2  1  0.66668  0.33336  0.27957  1
 W  W3  1  0.66669  0.33338  0.65807  1
