CIF file written using JARVIS-Tools package.
data_AlHO2
_symmetry_space_group_name_H-M  'Cmc2_1'
_cell_length_a       6.20326
_cell_length_b       6.20326
_cell_length_c       3.7291
_cell_angle_alpha    90
_cell_angle_beta     90
_cell_angle_gamma    26.9661

_symmetry_Int_Tables_number  36
_chemical_formula_structural  AlHO2
_chemical_formula_sum  Al2H2O4
_cell_volume  65.07082972949782
_cell_formula_units_Z  2
loop_
  _symmetry_equiv_pos_site_id
 _symmetry_equiv_pos_as_xyz
 1  'x, y, z'
loop_
 _atom_site_type_symbol
 _atom_site_label
 _atom_site_symmetry_multiplicity
 _atom_site_fract_x
 _atom_site_fract_y
 _atom_site_fract_z
 _atom_site_fract_occupancy
 Al  Al1  1  0.68050  0.68050  0.24808  1
 Al  Al2  1  0.31950  0.31950  0.74808  1
 H  H1  1  0.01923  0.01923  0.43930  1
 H  H2  1  0.98077  0.98077  0.93930  1
 O  O1  1  0.29082  0.29082  0.24875  1
 O  O2  1  0.70918  0.70918  0.74875  1
 O  O3  1  0.07767  0.07767  0.24553  1
 O  O4  1  0.92233  0.92233  0.74553  1
