CIF file written using JARVIS-Tools package.
data_PdAuO2
_symmetry_space_group_name_H-M  'P6_3/mmc'
_cell_length_a       3.24512
_cell_length_b       3.24512
_cell_length_c       12.1239
_cell_angle_alpha    90
_cell_angle_beta     90
_cell_angle_gamma    120

_symmetry_Int_Tables_number  194
_chemical_formula_structural  PdAuO2
_chemical_formula_sum  Pd2Au2O4
_cell_volume  110.569428598664
_cell_formula_units_Z  2
loop_
  _symmetry_equiv_pos_site_id
 _symmetry_equiv_pos_as_xyz
 1  'x, y, z'
loop_
 _atom_site_type_symbol
 _atom_site_label
 _atom_site_symmetry_multiplicity
 _atom_site_fract_x
 _atom_site_fract_y
 _atom_site_fract_z
 _atom_site_fract_occupancy
 Au  Au1  1  0.66667  0.33333  0.75000  1
 Au  Au2  1  0.33333  0.66667  0.25000  1
 O  O1  1  0.66667  0.33333  0.91796  1
 O  O2  1  0.33333  0.66667  0.08204  1
 O  O3  1  0.66667  0.33333  0.58204  1
 O  O4  1  0.33333  0.66667  0.41796  1
 Pd  Pd1  1  0.00000  0.00000  0.00000  1
 Pd  Pd2  1  0.00000  0.00000  0.50000  1
