CIF file written using JARVIS-Tools package.
data_Ca2SnS4
_symmetry_space_group_name_H-M  'I4/mmm'
_cell_length_a       4.97211
_cell_length_b       4.97211
_cell_length_c       7.90415
_cell_angle_alpha    108.332
_cell_angle_beta     108.332
_cell_angle_gamma    90

_symmetry_Int_Tables_number  139
_chemical_formula_structural  Ca2SnS4
_chemical_formula_sum  Ca2SnS4
_cell_volume  175.01064284173978
_cell_formula_units_Z  1
loop_
  _symmetry_equiv_pos_site_id
 _symmetry_equiv_pos_as_xyz
 1  'x, y, z'
loop_
 _atom_site_type_symbol
 _atom_site_label
 _atom_site_symmetry_multiplicity
 _atom_site_fract_x
 _atom_site_fract_y
 _atom_site_fract_z
 _atom_site_fract_occupancy
 Ca  Ca1  1  0.36478  0.36478  0.72955  1
 Ca  Ca2  1  0.63522  0.63522  0.27045  1
 S  S1  1  0.50000  -0.00000  0.00000  1
 S  S2  1  -0.00000  0.50000  0.00000  1
 S  S3  1  0.17666  0.17666  0.35331  1
 S  S4  1  0.82334  0.82334  0.64669  1
 Sn  Sn1  1  0.00000  0.00000  0.00000  1
