CIF file written using JARVIS-Tools package.
data_MnSe
_symmetry_space_group_name_H-M  'P6_3mc'
_cell_length_a       3.61861
_cell_length_b       3.61861
_cell_length_c       6.58237
_cell_angle_alpha    90
_cell_angle_beta     90
_cell_angle_gamma    120

_symmetry_Int_Tables_number  186
_chemical_formula_structural  MnSe
_chemical_formula_sum  Mn2Se2
_cell_volume  74.64437614788044
_cell_formula_units_Z  2
loop_
  _symmetry_equiv_pos_site_id
 _symmetry_equiv_pos_as_xyz
 1  'x, y, z'
loop_
 _atom_site_type_symbol
 _atom_site_label
 _atom_site_symmetry_multiplicity
 _atom_site_fract_x
 _atom_site_fract_y
 _atom_site_fract_z
 _atom_site_fract_occupancy
 Mn  Mn1  1  0.33333  0.66667  0.51046  1
 Mn  Mn2  1  0.66667  0.33333  0.01046  1
 Se  Se1  1  0.33333  0.66667  0.86554  1
 Se  Se2  1  0.66667  0.33333  0.36554  1
