CIF file written using JARVIS-Tools package.
data_Co2HgO4
_symmetry_space_group_name_H-M  'Fd-3m'
_cell_length_a       6.00976
_cell_length_b       6.00976
_cell_length_c       6.00976
_cell_angle_alpha    60
_cell_angle_beta     90
_cell_angle_gamma    120

_symmetry_Int_Tables_number  227
_chemical_formula_structural  Co2HgO4
_chemical_formula_sum  Co4Hg2O8
_cell_volume  153.4817273542113
_cell_formula_units_Z  2
loop_
  _symmetry_equiv_pos_site_id
 _symmetry_equiv_pos_as_xyz
 1  'x, y, z'
loop_
 _atom_site_type_symbol
 _atom_site_label
 _atom_site_symmetry_multiplicity
 _atom_site_fract_x
 _atom_site_fract_y
 _atom_site_fract_z
 _atom_site_fract_occupancy
 Co  Co1  1  0.62500  0.25000  0.12500  1
 Co  Co2  1  0.62500  0.25000  0.62500  1
 Co  Co3  1  0.62500  0.75000  0.62500  1
 Co  Co4  1  0.12500  0.75000  0.62500  1
 Hg  Hg1  1  0.00000  0.00000  0.00000  1
 Hg  Hg2  1  0.25000  0.50000  0.25000  1
 O  O1  1  0.80392  0.20261  0.39869  1
 O  O2  1  0.85131  0.29739  0.85131  1
 O  O3  1  0.85131  0.70261  0.44608  1
 O  O4  1  0.39869  0.20261  0.39869  1
 O  O5  1  0.39869  0.79739  0.39869  1
 O  O6  1  0.44608  0.29739  0.85131  1
 O  O7  1  0.85131  0.70261  0.85131  1
 O  O8  1  0.39869  0.79739  0.80392  1
