CIF file written using JARVIS-Tools package.
data_PrRhC2
_symmetry_space_group_name_H-M  'Amm2'
_cell_length_a       3.76587
_cell_length_b       4.08026
_cell_length_c       4.08026
_cell_angle_alpha    109.29
_cell_angle_beta     90
_cell_angle_gamma    90

_symmetry_Int_Tables_number  38
_chemical_formula_structural  PrRhC2
_chemical_formula_sum  PrRhC2
_cell_volume  59.17624741880155
_cell_formula_units_Z  1
loop_
  _symmetry_equiv_pos_site_id
 _symmetry_equiv_pos_as_xyz
 1  'x, y, z'
loop_
 _atom_site_type_symbol
 _atom_site_label
 _atom_site_symmetry_multiplicity
 _atom_site_fract_x
 _atom_site_fract_y
 _atom_site_fract_z
 _atom_site_fract_occupancy
 C  C1  1  0.50000  0.83726  0.44706  1
 C  C2  1  0.50000  0.55294  0.16274  1
 Pr  Pr1  1  0.00000  0.00946  0.99054  1
 Rh  Rh1  1  0.50000  0.38534  0.61466  1
