CIF file written using JARVIS-Tools package.
data_Te2MoW3Se4S2
_symmetry_space_group_name_H-M  'P3m1'
_cell_length_a       3.3478
_cell_length_b       3.34777
_cell_length_c       37.9015
_cell_angle_alpha    90.0006
_cell_angle_beta     90
_cell_angle_gamma    120

_symmetry_Int_Tables_number  156
_chemical_formula_structural  Te2MoW3Se4S2
_chemical_formula_sum  Te2MoW3Se4S2
_cell_volume  367.87702768210113
_cell_formula_units_Z  1
loop_
  _symmetry_equiv_pos_site_id
 _symmetry_equiv_pos_as_xyz
 1  'x, y, z'
loop_
 _atom_site_type_symbol
 _atom_site_label
 _atom_site_symmetry_multiplicity
 _atom_site_fract_x
 _atom_site_fract_y
 _atom_site_fract_z
 _atom_site_fract_occupancy
 Mo  Mo1  1  0.33331  0.66662  0.09396  1
 S  S1  1  0.66664  0.33328  0.05401  1
 S  S2  1  0.66665  0.33329  0.13401  1
 Se  Se1  1  0.33336  0.66672  0.32596  1
 Se  Se2  1  0.66664  0.33328  0.42542  1
 Se  Se3  1  0.66665  0.33330  0.51375  1
 Se  Se4  1  0.33335  0.66670  0.23758  1
 Te  Te1  1  0.33336  0.66671  0.70781  1
 Te  Te2  1  0.33335  0.66670  0.60726  1
 W  W1  1  0.33331  0.66662  0.46961  1
 W  W2  1  0.66669  0.33339  0.28178  1
 W  W3  1  0.66669  0.33338  0.65761  1
