CIF file written using JARVIS-Tools package.
data_Li2TiVO4
_symmetry_space_group_name_H-M  'Imma'
_cell_length_a       5.88208
_cell_length_b       5.88208
_cell_length_c       5.8924
_cell_angle_alpha    120.058
_cell_angle_beta     120.058
_cell_angle_gamma    90.1145

_symmetry_Int_Tables_number  74
_chemical_formula_structural  Li2TiVO4
_chemical_formula_sum  Li4Ti2V2O8
_cell_volume  143.7591720008471
_cell_formula_units_Z  2
loop_
  _symmetry_equiv_pos_site_id
 _symmetry_equiv_pos_as_xyz
 1  'x, y, z'
loop_
 _atom_site_type_symbol
 _atom_site_label
 _atom_site_symmetry_multiplicity
 _atom_site_fract_x
 _atom_site_fract_y
 _atom_site_fract_z
 _atom_site_fract_occupancy
 Li  Li1  1  0.00000  0.50000  0.50000  1
 Li  Li2  1  0.50000  0.50000  0.50000  1
 Li  Li3  1  0.50000  0.00000  0.00000  1
 Li  Li4  1  0.50000  0.50000  0.00000  1
 O  O1  1  0.24342  0.75657  0.00681  1
 O  O2  1  0.24201  0.23838  0.49020  1
 O  O3  1  0.24343  0.75658  0.49319  1
 O  O4  1  0.76162  0.75799  0.00980  1
 O  O5  1  0.23838  0.24201  0.99020  1
 O  O6  1  0.75657  0.24342  0.50681  1
 O  O7  1  0.75799  0.76162  0.50980  1
 O  O8  1  0.75658  0.24343  0.99319  1
 Ti  Ti1  1  0.00000  0.00000  0.50000  1
 Ti  Ti2  1  0.00000  0.00000  0.00000  1
 V  V1  1  0.00000  0.50000  0.00000  1
 V  V2  1  0.50000  0.00000  0.50000  1
