CIF file written using JARVIS-Tools package.
data_Ce3Al
_symmetry_space_group_name_H-M  'Pm-3m'
_cell_length_a       4.67256
_cell_length_b       4.67256
_cell_length_c       4.67256
_cell_angle_alpha    90
_cell_angle_beta     90
_cell_angle_gamma    90

_symmetry_Int_Tables_number  221
_chemical_formula_structural  Ce3Al
_chemical_formula_sum  Ce3Al
_cell_volume  102.01508470168451
_cell_formula_units_Z  1
loop_
  _symmetry_equiv_pos_site_id
 _symmetry_equiv_pos_as_xyz
 1  'x, y, z'
loop_
 _atom_site_type_symbol
 _atom_site_label
 _atom_site_symmetry_multiplicity
 _atom_site_fract_x
 _atom_site_fract_y
 _atom_site_fract_z
 _atom_site_fract_occupancy
 Al  Al1  1  0.00000  0.00000  0.00000  1
 Ce  Ce1  1  0.50000  0.50000  0.00000  1
 Ce  Ce2  1  0.50000  0.00000  0.50000  1
 Ce  Ce3  1  0.00000  0.50000  0.50000  1
