CIF file written using JARVIS-Tools package.
data_Er3SnC
_symmetry_space_group_name_H-M  'Pm-3m'
_cell_length_a       5.5182
_cell_length_b       5.5182
_cell_length_c       5.5182
_cell_angle_alpha    90
_cell_angle_beta     90
_cell_angle_gamma    90

_symmetry_Int_Tables_number  221
_chemical_formula_structural  Er3SnC
_chemical_formula_sum  Er3SnC
_cell_volume  168.03179647470537
_cell_formula_units_Z  1
loop_
  _symmetry_equiv_pos_site_id
 _symmetry_equiv_pos_as_xyz
 1  'x, y, z'
loop_
 _atom_site_type_symbol
 _atom_site_label
 _atom_site_symmetry_multiplicity
 _atom_site_fract_x
 _atom_site_fract_y
 _atom_site_fract_z
 _atom_site_fract_occupancy
 C  C1  1  0.00000  0.00000  0.00000  1
 Er  Er1  1  0.00000  0.50000  0.50000  1
 Er  Er2  1  0.50000  0.00000  0.50000  1
 Er  Er3  1  0.50000  0.50000  0.00000  1
 Sn  Sn1  1  0.50000  0.50000  0.50000  1
