data_image0
_chemical_formula_structural       H6MgSr2
_chemical_formula_sum              "H6 Mg1 Sr2"
_cell_length_a       5.39968
_cell_length_b       5.39969
_cell_length_c       4.14495
_cell_angle_alpha    90
_cell_angle_beta     90.0002
_cell_angle_gamma    120

_space_group_name_H-M_alt    "P 1"
_space_group_IT_number       1

loop_
  _space_group_symop_operation_xyz
  'x, y, z'

loop_
  _atom_site_type_symbol
  _atom_site_label
  _atom_site_symmetry_multiplicity
  _atom_site_fract_x
  _atom_site_fract_y
  _atom_site_fract_z
  _atom_site_occupancy
  H   H1        1.0  0.17800  0.35600  0.23700  1.0000
  H   H2        1.0  0.17800  0.82200  0.23700  1.0000
  H   H3        1.0  0.64400  0.82200  0.23700  1.0000
  H   H4        1.0  0.35600  0.17800  0.76300  1.0000
  H   H5        1.0  0.82200  0.17800  0.76300  1.0000
  H   H6        1.0  0.82200  0.64400  0.76300  1.0000
  Mg  Mg1       1.0  0.00000  0.00000  0.00000  1.0000
  Sr  Sr1       1.0  0.66700  0.33300  0.26300  1.0000
  Sr  Sr2       1.0  0.33300  0.66700  0.73700  1.0000
