CIF file written using JARVIS-Tools package.
data_UCoSn
_symmetry_space_group_name_H-M  'P-62m'
_cell_length_a       7.07715
_cell_length_b       7.07715
_cell_length_c       4.01953
_cell_angle_alpha    90
_cell_angle_beta     90
_cell_angle_gamma    120

_symmetry_Int_Tables_number  189
_chemical_formula_structural  UCoSn
_chemical_formula_sum  U3Co3Sn3
_cell_volume  174.3504399761561
_cell_formula_units_Z  3
loop_
  _symmetry_equiv_pos_site_id
 _symmetry_equiv_pos_as_xyz
 1  'x, y, z'
loop_
 _atom_site_type_symbol
 _atom_site_label
 _atom_site_symmetry_multiplicity
 _atom_site_fract_x
 _atom_site_fract_y
 _atom_site_fract_z
 _atom_site_fract_occupancy
 Co  Co1  1  0.33333  0.66667  0.00000  1
 Co  Co2  1  0.00000  0.00000  0.50000  1
 Co  Co3  1  0.66667  0.33333  0.00000  1
 Sn  Sn1  1  0.25187  0.25187  0.00000  1
 Sn  Sn2  1  0.74813  0.00000  0.00000  1
 Sn  Sn3  1  0.00000  0.74813  0.00000  1
 U  U1  1  0.41681  0.00000  0.50000  1
 U  U2  1  0.58319  0.58319  0.50000  1
 U  U3  1  0.00000  0.41681  0.50000  1
