CIF file written using JARVIS-Tools package.
data_KCdN3O6
_symmetry_space_group_name_H-M  'Pm-3'
_cell_length_a       5.73348
_cell_length_b       5.73348
_cell_length_c       5.73348
_cell_angle_alpha    90
_cell_angle_beta     90
_cell_angle_gamma    90

_symmetry_Int_Tables_number  200
_chemical_formula_structural  KCdN3O6
_chemical_formula_sum  KCdN3O6
_cell_volume  188.47598079593527
_cell_formula_units_Z  1
loop_
  _symmetry_equiv_pos_site_id
 _symmetry_equiv_pos_as_xyz
 1  'x, y, z'
loop_
 _atom_site_type_symbol
 _atom_site_label
 _atom_site_symmetry_multiplicity
 _atom_site_fract_x
 _atom_site_fract_y
 _atom_site_fract_z
 _atom_site_fract_occupancy
 Cd  Cd1  1  0.50000  0.50000  0.50000  1
 K  K1  1  0.00000  0.00000  0.00000  1
 N  N1  1  0.50000  0.50000  0.00000  1
 N  N2  1  0.50000  0.00000  0.50000  1
 N  N3  1  0.00000  0.50000  0.50000  1
 O  O1  1  0.50000  0.00000  0.71789  1
 O  O2  1  0.00000  0.71789  0.50000  1
 O  O3  1  0.00000  0.28211  0.50000  1
 O  O4  1  0.50000  0.00000  0.28211  1
 O  O5  1  0.28211  0.50000  0.00000  1
 O  O6  1  0.71789  0.50000  0.00000  1
