CIF file written using JARVIS-Tools package.
data_YbIn2Ni
_symmetry_space_group_name_H-M  'Cmcm'
_cell_length_a       4.30225
_cell_length_b       5.4681
_cell_length_c       7.68516
_cell_angle_alpha    90
_cell_angle_beta     90
_cell_angle_gamma    113.166

_symmetry_Int_Tables_number  63
_chemical_formula_structural  YbIn2Ni
_chemical_formula_sum  Yb2In4Ni2
_cell_volume  166.2168645186835
_cell_formula_units_Z  2
loop_
  _symmetry_equiv_pos_site_id
 _symmetry_equiv_pos_as_xyz
 1  'x, y, z'
loop_
 _atom_site_type_symbol
 _atom_site_label
 _atom_site_symmetry_multiplicity
 _atom_site_fract_x
 _atom_site_fract_y
 _atom_site_fract_z
 _atom_site_fract_occupancy
 In  In1  1  0.35319  0.70638  0.55178  1
 In  In2  1  0.64681  0.29362  0.44822  1
 In  In3  1  0.35319  0.70638  0.94822  1
 In  In4  1  0.64681  0.29362  0.05178  1
 Ni  Ni1  1  0.78231  0.56461  0.75000  1
 Ni  Ni2  1  0.21769  0.43539  0.25000  1
 Yb  Yb1  1  0.93719  0.87437  0.25000  1
 Yb  Yb2  1  0.06281  0.12563  0.75000  1
