CIF file written using JARVIS-Tools package.
data_PrMnGe
_symmetry_space_group_name_H-M  'P4/nmm'
_cell_length_a       4.08391
_cell_length_b       4.08356
_cell_length_c       7.42729
_cell_angle_alpha    90
_cell_angle_beta     90
_cell_angle_gamma    90

_symmetry_Int_Tables_number  129
_chemical_formula_structural  PrMnGe
_chemical_formula_sum  Pr2Mn2Ge2
_cell_volume  123.86401074794868
_cell_formula_units_Z  2
loop_
  _symmetry_equiv_pos_site_id
 _symmetry_equiv_pos_as_xyz
 1  'x, y, z'
loop_
 _atom_site_type_symbol
 _atom_site_label
 _atom_site_symmetry_multiplicity
 _atom_site_fract_x
 _atom_site_fract_y
 _atom_site_fract_z
 _atom_site_fract_occupancy
 Ge  Ge1  1  0.50000  0.00000  0.19682  1
 Ge  Ge2  1  0.00000  0.50000  0.80318  1
 Mn  Mn1  1  0.50000  0.50000  -0.00001  1
 Mn  Mn2  1  0.00000  0.00000  0.00001  1
 Pr  Pr1  1  0.00000  0.50000  0.33022  1
 Pr  Pr2  1  0.50000  0.00000  0.66978  1
