CIF file written using JARVIS-Tools package.
data_ZrNCl
_symmetry_space_group_name_H-M  'P-3m1'
_cell_length_a       3.35509
_cell_length_b       3.35509
_cell_length_c       11.5959
_cell_angle_alpha    90
_cell_angle_beta     90
_cell_angle_gamma    120

_symmetry_Int_Tables_number  164
_chemical_formula_structural  ZrNCl
_chemical_formula_sum  Zr2N2Cl2
_cell_volume  113.04268634892115
_cell_formula_units_Z  2
loop_
  _symmetry_equiv_pos_site_id
 _symmetry_equiv_pos_as_xyz
 1  'x, y, z'
loop_
 _atom_site_type_symbol
 _atom_site_label
 _atom_site_symmetry_multiplicity
 _atom_site_fract_x
 _atom_site_fract_y
 _atom_site_fract_z
 _atom_site_fract_occupancy
 Cl  Cl1  1  0.33333  0.66667  0.63385  1
 Cl  Cl2  1  0.66667  0.33333  0.36615  1
 N  N1  1  0.66667  0.33333  0.12723  1
 N  N2  1  0.33333  0.66667  0.87277  1
 Zr  Zr1  1  0.00000  0.00000  0.19468  1
 Zr  Zr2  1  0.00000  0.00000  0.80532  1
