CIF file written using JARVIS-Tools package.
data_Cd2SiO4
_symmetry_space_group_name_H-M  'Fddd'
_cell_length_a       5.81504
_cell_length_b       5.81504
_cell_length_c       6.71357
_cell_angle_alpha    103.677
_cell_angle_beta     103.677
_cell_angle_gamma    117.002

_symmetry_Int_Tables_number  70
_chemical_formula_structural  Cd2SiO4
_chemical_formula_sum  Cd4Si2O8
_cell_volume  180.37241582444673
_cell_formula_units_Z  2
loop_
  _symmetry_equiv_pos_site_id
 _symmetry_equiv_pos_as_xyz
 1  'x, y, z'
loop_
 _atom_site_type_symbol
 _atom_site_label
 _atom_site_symmetry_multiplicity
 _atom_site_fract_x
 _atom_site_fract_y
 _atom_site_fract_z
 _atom_site_fract_occupancy
 Cd  Cd1  1  0.80790  0.19210  0.75000  1
 Cd  Cd2  1  0.44210  0.55790  0.75000  1
 Cd  Cd3  1  0.19210  0.80790  0.25000  1
 Cd  Cd4  1  0.55790  0.44210  0.25000  1
 O  O1  1  0.24987  0.20848  0.89811  1
 O  O2  1  0.31037  0.85176  0.60189  1
 O  O3  1  0.79152  0.75013  0.60189  1
 O  O4  1  0.14824  0.68963  0.89811  1
 O  O5  1  0.75013  0.79152  0.10189  1
 O  O6  1  0.68963  0.14824  0.39811  1
 O  O7  1  0.85176  0.31037  0.10189  1
 O  O8  1  0.20848  0.24987  0.39811  1
 Si  Si1  1  0.12500  0.87500  0.75000  1
 Si  Si2  1  0.87500  0.12500  0.25000  1
