CIF file written using JARVIS-Tools package.
data_K8PO3
_symmetry_space_group_name_H-M  'Pm-3m'
_cell_length_a       6.73902
_cell_length_b       6.73902
_cell_length_c       6.73902
_cell_angle_alpha    90
_cell_angle_beta     90
_cell_angle_gamma    90

_symmetry_Int_Tables_number  221
_chemical_formula_structural  K8PO3
_chemical_formula_sum  K8PO3
_cell_volume  306.0487276192071
_cell_formula_units_Z  1
loop_
  _symmetry_equiv_pos_site_id
 _symmetry_equiv_pos_as_xyz
 1  'x, y, z'
loop_
 _atom_site_type_symbol
 _atom_site_label
 _atom_site_symmetry_multiplicity
 _atom_site_fract_x
 _atom_site_fract_y
 _atom_site_fract_z
 _atom_site_fract_occupancy
 K  K1  1  0.26495  0.26495  0.26495  1
 K  K2  1  0.73505  0.73505  0.26495  1
 K  K3  1  0.73505  0.26495  0.73505  1
 K  K4  1  0.26495  0.73505  0.73505  1
 K  K5  1  0.26495  0.26495  0.73505  1
 K  K6  1  0.73505  0.73505  0.73505  1
 K  K7  1  0.73505  0.26495  0.26495  1
 K  K8  1  0.26495  0.73505  0.26495  1
 O  O1  1  0.00000  0.50000  0.50000  1
 O  O2  1  0.50000  0.50000  0.00000  1
 O  O3  1  0.50000  0.00000  0.50000  1
 P  P1  1  0.00000  0.00000  0.00000  1
