CIF file written using JARVIS-Tools package.
data_Mg3ReH7
_symmetry_space_group_name_H-M  'P6_3/mmc'
_cell_length_a       4.83982
_cell_length_b       4.83982
_cell_length_c       10.5844
_cell_angle_alpha    90
_cell_angle_beta     90
_cell_angle_gamma    120

_symmetry_Int_Tables_number  194
_chemical_formula_structural  Mg3ReH7
_chemical_formula_sum  Mg6Re2H4
_cell_volume  214.71195272047038
_cell_formula_units_Z  2
loop_
  _symmetry_equiv_pos_site_id
 _symmetry_equiv_pos_as_xyz
 1  'x, y, z'
loop_
 _atom_site_type_symbol
 _atom_site_label
 _atom_site_symmetry_multiplicity
 _atom_site_fract_x
 _atom_site_fract_y
 _atom_site_fract_z
 _atom_site_fract_occupancy
 H  H1  1  0.16943  0.33887  0.59924  1
 H  H2  1  0.16943  0.33887  0.90076  1
 H  H3  1  0.66113  0.83057  0.90076  1
 H  H4  1  0.33333  0.66667  0.25000  1
 H  H5  1  0.83057  0.66113  0.09924  1
 H  H6  1  0.33887  0.16943  0.09924  1
 H  H7  1  0.16943  0.83057  0.90076  1
 H  H8  1  0.83057  0.66113  0.40076  1
 H  H9  1  0.33887  0.16943  0.40076  1
 H  H10  1  0.83057  0.16943  0.40076  1
 H  H11  1  0.66667  0.33333  0.75000  1
 H  H12  1  0.66113  0.83057  0.59924  1
 H  H13  1  0.16943  0.83057  0.59924  1
 H  H14  1  0.83057  0.16943  0.09924  1
 Mg  Mg1  1  0.00000  0.00000  0.75000  1
 Mg  Mg2  1  0.00000  0.00000  0.25000  1
 Mg  Mg3  1  0.33333  0.66667  0.06913  1
 Mg  Mg4  1  0.66667  0.33333  0.93087  1
 Mg  Mg5  1  0.66667  0.33333  0.56913  1
 Mg  Mg6  1  0.33333  0.66667  0.43087  1
 Re  Re1  1  0.00000  0.00000  0.00000  1
 Re  Re2  1  0.00000  0.00000  0.50000  1
