CIF file written using JARVIS-Tools package.
data_K3H5Pd
_symmetry_space_group_name_H-M  'Cm'
_cell_length_a       7.317
_cell_length_b       7.317
_cell_length_c       5.78571
_cell_angle_alpha    90
_cell_angle_beta     90
_cell_angle_gamma    90

_symmetry_Int_Tables_number  8
_chemical_formula_structural  K3H5Pd
_chemical_formula_sum  K6H0Pd2
_cell_volume  309.7581808921144
_cell_formula_units_Z  2
loop_
  _symmetry_equiv_pos_site_id
 _symmetry_equiv_pos_as_xyz
 1  'x, y, z'
loop_
 _atom_site_type_symbol
 _atom_site_label
 _atom_site_symmetry_multiplicity
 _atom_site_fract_x
 _atom_site_fract_y
 _atom_site_fract_z
 _atom_site_fract_occupancy
 H  H1  1  0.61499  0.11499  0.20075  1
 H  H2  1  0.50000  0.50000  0.50000  1
 H  H3  1  0.00000  0.00000  0.50000  1
 H  H4  1  0.50000  0.00000  0.00000  1
 H  H5  1  0.38501  0.88501  0.79925  1
 H  H6  1  0.61499  0.11499  0.79925  1
 H  H7  1  0.11499  0.38501  0.20075  1
 H  H8  1  0.88501  0.61499  0.20075  1
 H  H9  1  0.88501  0.61499  0.79925  1
 H  H10  1  0.38501  0.88501  0.20075  1
 K  K1  1  0.50000  0.50000  0.00000  1
 K  K2  1  0.31636  0.18364  0.50000  1
 K  K3  1  0.68364  0.81636  0.50000  1
 K  K4  1  0.81636  0.31636  0.50000  1
 K  K5  1  0.18364  0.68364  0.50000  1
 K  K6  1  0.00000  0.00000  0.00000  1
 Pd  Pd1  1  0.11499  0.38501  0.79925  1
 Pd  Pd2  1  0.00000  0.50000  0.00000  1
