CIF file written using JARVIS-Tools package.
data_BaNiO3
_symmetry_space_group_name_H-M  'P6_3/mmc'
_cell_length_a       5.68389
_cell_length_b       5.68389
_cell_length_c       4.83408
_cell_angle_alpha    90
_cell_angle_beta     90
_cell_angle_gamma    120

_symmetry_Int_Tables_number  194
_chemical_formula_structural  BaNiO3
_chemical_formula_sum  Ba2Ni2O6
_cell_volume  135.24937360776178
_cell_formula_units_Z  2
loop_
  _symmetry_equiv_pos_site_id
 _symmetry_equiv_pos_as_xyz
 1  'x, y, z'
loop_
 _atom_site_type_symbol
 _atom_site_label
 _atom_site_symmetry_multiplicity
 _atom_site_fract_x
 _atom_site_fract_y
 _atom_site_fract_z
 _atom_site_fract_occupancy
 Ba  Ba1  1  0.66667  0.33333  0.25935  1
 Ba  Ba2  1  0.33333  0.66667  0.75935  1
 Ni  Ni1  1  0.00000  0.00000  0.50953  1
 Ni  Ni2  1  0.00000  0.00000  0.00953  1
 O  O1  1  0.85179  0.70358  0.75954  1
 O  O2  1  0.70358  0.85179  0.25954  1
 O  O3  1  0.14821  0.85179  0.25954  1
 O  O4  1  0.85179  0.14821  0.75954  1
 O  O5  1  0.14821  0.29642  0.25954  1
 O  O6  1  0.29642  0.14821  0.75954  1
