CIF file written using JARVIS-Tools package.
data_YbMn2Ge2
_symmetry_space_group_name_H-M  'I4/mmm'
_cell_length_a       3.94355
_cell_length_b       3.94355
_cell_length_c       6.0999
_cell_angle_alpha    108.859
_cell_angle_beta     108.859
_cell_angle_gamma    90

_symmetry_Int_Tables_number  139
_chemical_formula_structural  YbMn2Ge2
_chemical_formula_sum  YbMn2Ge2
_cell_volume  84.3704905012302
_cell_formula_units_Z  1
loop_
  _symmetry_equiv_pos_site_id
 _symmetry_equiv_pos_as_xyz
 1  'x, y, z'
loop_
 _atom_site_type_symbol
 _atom_site_label
 _atom_site_symmetry_multiplicity
 _atom_site_fract_x
 _atom_site_fract_y
 _atom_site_fract_z
 _atom_site_fract_occupancy
 Ge  Ge1  1  0.62168  0.62168  0.24336  1
 Ge  Ge2  1  0.37832  0.37832  0.75664  1
 Mn  Mn1  1  0.25000  0.75000  0.50000  1
 Mn  Mn2  1  0.75000  0.25000  0.50000  1
 Yb  Yb1  1  0.00000  0.00000  0.00000  1
