CIF file written using JARVIS-Tools package.
data_CoPt3O6
_symmetry_space_group_name_H-M  'Cmmm'
_cell_length_a       3.21809
_cell_length_b       6.12829
_cell_length_c       6.1283
_cell_angle_alpha    109.328
_cell_angle_beta     90
_cell_angle_gamma    90

_symmetry_Int_Tables_number  65
_chemical_formula_structural  CoPt3O6
_chemical_formula_sum  CoPt3O6
_cell_volume  114.0470127609951
_cell_formula_units_Z  1
loop_
  _symmetry_equiv_pos_site_id
 _symmetry_equiv_pos_as_xyz
 1  'x, y, z'
loop_
 _atom_site_type_symbol
 _atom_site_label
 _atom_site_symmetry_multiplicity
 _atom_site_fract_x
 _atom_site_fract_y
 _atom_site_fract_z
 _atom_site_fract_occupancy
 Co  Co1  1  0.00000  0.50000  0.50000  1
 O  O1  1  0.00000  0.91158  0.65832  1
 O  O2  1  0.00000  0.08842  0.34168  1
 O  O3  1  0.00000  0.65832  0.91158  1
 O  O4  1  0.00000  0.34168  0.08842  1
 O  O5  1  0.50000  0.35501  0.64499  1
 O  O6  1  0.50000  0.64499  0.35501  1
 Pt  Pt1  1  0.00000  0.00000  0.00000  1
 Pt  Pt2  1  0.50000  0.50000  0.00000  1
 Pt  Pt3  1  0.50000  0.00000  0.50000  1
