CIF file written using JARVIS-Tools package.
data_Mo3WSe2S6
_symmetry_space_group_name_H-M  'P3m1'
_cell_length_a       3.22341
_cell_length_b       3.22343
_cell_length_c       34.036
_cell_angle_alpha    90.0001
_cell_angle_beta     90.0001
_cell_angle_gamma    120

_symmetry_Int_Tables_number  156
_chemical_formula_structural  Mo3WSe2S6
_chemical_formula_sum  Mo3WSe2S6
_cell_volume  306.2688492490792
_cell_formula_units_Z  1
loop_
  _symmetry_equiv_pos_site_id
 _symmetry_equiv_pos_as_xyz
 1  'x, y, z'
loop_
 _atom_site_type_symbol
 _atom_site_label
 _atom_site_symmetry_multiplicity
 _atom_site_fract_x
 _atom_site_fract_y
 _atom_site_fract_z
 _atom_site_fract_occupancy
 Mo  Mo1  1  0.33332  0.66664  0.09680  1
 Mo  Mo2  1  0.33333  0.66666  0.46845  1
 Mo  Mo3  1  0.66667  0.33334  0.27922  1
 S  S1  1  0.33333  0.66666  0.32497  1
 S  S2  1  0.33335  0.66668  0.70438  1
 S  S3  1  0.66664  0.33330  0.05111  1
 S  S4  1  0.66666  0.33332  0.14253  1
 S  S5  1  0.33334  0.66668  0.23350  1
 S  S6  1  0.33335  0.66669  0.61245  1
 Se  Se1  1  0.66666  0.33332  0.41819  1
 Se  Se2  1  0.66668  0.33335  0.51871  1
 W  W1  1  0.66668  0.33336  0.65844  1
