CIF file written using JARVIS-Tools package.
data_Li3Mn4O8
_symmetry_space_group_name_H-M  'R-3m'
_cell_length_a       5.67223
_cell_length_b       5.67223
_cell_length_c       5.85953
_cell_angle_alpha    61.0519
_cell_angle_beta     61.0519
_cell_angle_gamma    60

_symmetry_Int_Tables_number  166
_chemical_formula_structural  Li3Mn4O8
_chemical_formula_sum  Li3Mn4O8
_cell_volume  135.38810248971862
_cell_formula_units_Z  1
loop_
  _symmetry_equiv_pos_site_id
 _symmetry_equiv_pos_as_xyz
 1  'x, y, z'
loop_
 _atom_site_type_symbol
 _atom_site_label
 _atom_site_symmetry_multiplicity
 _atom_site_fract_x
 _atom_site_fract_y
 _atom_site_fract_z
 _atom_site_fract_occupancy
 Li  Li1  1  0.14483  0.14483  0.06551  1
 Li  Li2  1  -0.00000  -0.00000  0.50000  1
 Li  Li3  1  0.85517  0.85517  0.93449  1
 Mn  Mn1  1  0.50000  0.50000  -0.00000  1
 Mn  Mn2  1  0.50000  -0.00000  0.50000  1
 Mn  Mn3  1  -0.00000  0.50000  0.50000  1
 Mn  Mn4  1  0.50000  0.50000  0.50000  1
 O  O1  1  0.72460  0.25632  0.26276  1
 O  O2  1  0.25632  0.25632  0.26276  1
 O  O3  1  0.25632  0.72460  0.26276  1
 O  O4  1  0.26673  0.26673  0.69982  1
 O  O5  1  0.74368  0.27540  0.73724  1
 O  O6  1  0.73327  0.73327  0.30018  1
 O  O7  1  0.74368  0.74368  0.73724  1
 O  O8  1  0.27540  0.74368  0.73724  1
