CIF file written using JARVIS-Tools package.
data_CaMn2Ge2
_symmetry_space_group_name_H-M  'I4/mmm'
_cell_length_a       3.98218
_cell_length_b       3.98217
_cell_length_c       6.17193
_cell_angle_alpha    108.82
_cell_angle_beta     108.82
_cell_angle_gamma    90

_symmetry_Int_Tables_number  139
_chemical_formula_structural  CaMn2Ge2
_chemical_formula_sum  CaMn2Ge2
_cell_volume  87.0930925234929
_cell_formula_units_Z  1
loop_
  _symmetry_equiv_pos_site_id
 _symmetry_equiv_pos_as_xyz
 1  'x, y, z'
loop_
 _atom_site_type_symbol
 _atom_site_label
 _atom_site_symmetry_multiplicity
 _atom_site_fract_x
 _atom_site_fract_y
 _atom_site_fract_z
 _atom_site_fract_occupancy
 Ca  Ca1  1  0.00000  0.00000  0.00000  1
 Ge  Ge1  1  0.37587  0.37587  0.75173  1
 Ge  Ge2  1  0.62413  0.62413  0.24827  1
 Mn  Mn1  1  0.75000  0.25000  0.50000  1
 Mn  Mn2  1  0.25000  0.75000  0.50000  1
