CIF file written using JARVIS-Tools package.
data_Mg3P2
_symmetry_space_group_name_H-M  'Pn-3m'
_cell_length_a       6.01429
_cell_length_b       6.01429
_cell_length_c       6.01429
_cell_angle_alpha    90
_cell_angle_beta     90
_cell_angle_gamma    90

_symmetry_Int_Tables_number  224
_chemical_formula_structural  Mg3P2
_chemical_formula_sum  Mg6P4
_cell_volume  217.54701370895876
_cell_formula_units_Z  2
loop_
  _symmetry_equiv_pos_site_id
 _symmetry_equiv_pos_as_xyz
 1  'x, y, z'
loop_
 _atom_site_type_symbol
 _atom_site_label
 _atom_site_symmetry_multiplicity
 _atom_site_fract_x
 _atom_site_fract_y
 _atom_site_fract_z
 _atom_site_fract_occupancy
 Mg  Mg1  1  0.00000  0.50000  0.50000  1
 Mg  Mg2  1  0.50000  0.00000  0.00000  1
 Mg  Mg3  1  0.00000  0.00000  0.50000  1
 Mg  Mg4  1  0.00000  0.50000  0.00000  1
 Mg  Mg5  1  0.50000  0.00000  0.50000  1
 Mg  Mg6  1  0.50000  0.50000  0.00000  1
 P  P1  1  0.25000  0.25000  0.25000  1
 P  P2  1  0.75000  0.25000  0.75000  1
 P  P3  1  0.75000  0.75000  0.25000  1
 P  P4  1  0.25000  0.75000  0.75000  1
