CIF file written using JARVIS-Tools package.
data_MoWSe4
_symmetry_space_group_name_H-M  'P3m1'
_cell_length_a       3.32755
_cell_length_b       3.32756
_cell_length_c       35.2249
_cell_angle_alpha    90.0007
_cell_angle_beta     90
_cell_angle_gamma    120

_symmetry_Int_Tables_number  156
_chemical_formula_structural  MoWSe4
_chemical_formula_sum  Mo2W2Se8
_cell_volume  337.7778166752111
_cell_formula_units_Z  2
loop_
  _symmetry_equiv_pos_site_id
 _symmetry_equiv_pos_as_xyz
 1  'x, y, z'
loop_
 _atom_site_type_symbol
 _atom_site_label
 _atom_site_symmetry_multiplicity
 _atom_site_fract_x
 _atom_site_fract_y
 _atom_site_fract_z
 _atom_site_fract_occupancy
 Mo  Mo1  1  0.33332  0.66664  0.09475  1
 Mo  Mo2  1  0.33333  0.66665  0.46937  1
 Se  Se1  1  0.33334  0.66669  0.32987  1
 Se  Se2  1  0.33335  0.66671  0.70440  1
 Se  Se3  1  0.66665  0.33331  0.04730  1
 Se  Se4  1  0.66665  0.33331  0.42187  1
 Se  Se5  1  0.66665  0.33330  0.14227  1
 Se  Se6  1  0.66667  0.33333  0.51687  1
 Se  Se7  1  0.33333  0.66667  0.23434  1
 Se  Se8  1  0.33334  0.66669  0.60892  1
 W  W1  1  0.66667  0.33335  0.28210  1
 W  W2  1  0.66668  0.33336  0.65669  1
