CIF file written using JARVIS-Tools package.
data_NiSb2
_symmetry_space_group_name_H-M  'Pnnm'
_cell_length_a       3.87857
_cell_length_b       5.27194
_cell_length_c       6.39306
_cell_angle_alpha    90
_cell_angle_beta     90
_cell_angle_gamma    90

_symmetry_Int_Tables_number  58
_chemical_formula_structural  NiSb2
_chemical_formula_sum  Ni2Sb4
_cell_volume  130.72278169117084
_cell_formula_units_Z  2
loop_
  _symmetry_equiv_pos_site_id
 _symmetry_equiv_pos_as_xyz
 1  'x, y, z'
loop_
 _atom_site_type_symbol
 _atom_site_label
 _atom_site_symmetry_multiplicity
 _atom_site_fract_x
 _atom_site_fract_y
 _atom_site_fract_z
 _atom_site_fract_occupancy
 Ni  Ni1  1  0.00000  0.00000  0.00000  1
 Ni  Ni2  1  0.50000  0.50000  0.50000  1
 Sb  Sb1  1  0.00000  0.21860  0.35848  1
 Sb  Sb2  1  0.00000  0.78140  0.64152  1
 Sb  Sb3  1  0.50000  0.71860  0.14152  1
 Sb  Sb4  1  0.50000  0.28140  0.85848  1
