CIF file written using JARVIS-Tools package.
data_CeNi2As2
_symmetry_space_group_name_H-M  'I4/mmm'
_cell_length_a       4.04647
_cell_length_b       4.04647
_cell_length_c       5.9029
_cell_angle_alpha    110.045
_cell_angle_beta     110.045
_cell_angle_gamma    90

_symmetry_Int_Tables_number  139
_chemical_formula_structural  CeNi2As2
_chemical_formula_sum  CeNi2As2
_cell_volume  84.53966319466
_cell_formula_units_Z  1
loop_
  _symmetry_equiv_pos_site_id
 _symmetry_equiv_pos_as_xyz
 1  'x, y, z'
loop_
 _atom_site_type_symbol
 _atom_site_label
 _atom_site_symmetry_multiplicity
 _atom_site_fract_x
 _atom_site_fract_y
 _atom_site_fract_z
 _atom_site_fract_occupancy
 As  As1  1  0.63102  0.63102  0.26203  1
 As  As2  1  0.36898  0.36898  0.73797  1
 Ce  Ce1  1  0.00000  0.00000  0.00000  1
 Ni  Ni1  1  0.75000  0.25000  0.50000  1
 Ni  Ni2  1  0.25000  0.75000  0.50000  1
