CIF file written using JARVIS-Tools package.
data_K2NiPbN6O12
_symmetry_space_group_name_H-M  'Fm-3'
_cell_length_a       7.45029
_cell_length_b       7.45029
_cell_length_c       7.45029
_cell_angle_alpha    60
_cell_angle_beta     60
_cell_angle_gamma    60

_symmetry_Int_Tables_number  202
_chemical_formula_structural  K2NiPbN6O12
_chemical_formula_sum  K2NiPbN6O2
_cell_volume  292.4185971974435
_cell_formula_units_Z  1
loop_
  _symmetry_equiv_pos_site_id
 _symmetry_equiv_pos_as_xyz
 1  'x, y, z'
loop_
 _atom_site_type_symbol
 _atom_site_label
 _atom_site_symmetry_multiplicity
 _atom_site_fract_x
 _atom_site_fract_y
 _atom_site_fract_z
 _atom_site_fract_occupancy
 K  K1  1  0.25000  0.25000  0.25000  1
 K  K2  1  0.75000  0.75000  0.75000  1
 N  N1  1  0.19576  0.19575  0.80424  1
 N  N2  1  0.80425  0.80425  0.19575  1
 N  N3  1  0.19575  0.80425  0.19576  1
 N  N4  1  0.80425  0.19575  0.80425  1
 N  N5  1  0.19575  0.80425  0.80425  1
 N  N6  1  0.80425  0.19575  0.19576  1
 Ni  Ni1  1  0.00000  0.00000  0.00000  1
 O  O1  1  0.15490  0.64006  0.84510  1
 O  O2  1  0.15489  0.35994  0.64006  1
 O  O3  1  0.64006  0.84510  0.15489  1
 O  O4  1  0.84510  0.64006  0.35994  1
 O  O5  1  0.35994  0.64006  0.15490  1
 O  O6  1  0.15490  0.84510  0.35994  1
 O  O7  1  0.64006  0.15489  0.35994  1
 O  O8  1  0.84510  0.35994  0.15490  1
 O  O9  1  0.64006  0.35994  0.84510  1
 O  O10  1  0.35994  0.84510  0.64006  1
 O  O11  1  0.35994  0.15489  0.84511  1
 O  O12  1  0.84511  0.15489  0.64006  1
 Pb  Pb1  1  0.50000  0.50000  0.50000  1
