CIF file written using JARVIS-Tools package.
data_IrN2
_symmetry_space_group_name_H-M  'Pnnm'
_cell_length_a       2.78952
_cell_length_b       4.09405
_cell_length_c       4.93214
_cell_angle_alpha    90
_cell_angle_beta     90
_cell_angle_gamma    90

_symmetry_Int_Tables_number  58
_chemical_formula_structural  IrN2
_chemical_formula_sum  Ir2N4
_cell_volume  56.32723657476057
_cell_formula_units_Z  2
loop_
  _symmetry_equiv_pos_site_id
 _symmetry_equiv_pos_as_xyz
 1  'x, y, z'
loop_
 _atom_site_type_symbol
 _atom_site_label
 _atom_site_symmetry_multiplicity
 _atom_site_fract_x
 _atom_site_fract_y
 _atom_site_fract_z
 _atom_site_fract_occupancy
 Ir  Ir1  1  0.50000  0.50000  0.50000  1
 Ir  Ir2  1  0.00000  0.00000  0.00000  1
 N  N1  1  0.50000  0.37150  0.90887  1
 N  N2  1  0.50000  0.62850  0.09113  1
 N  N3  1  0.00000  0.12850  0.40887  1
 N  N4  1  0.00000  0.87150  0.59113  1
