CIF file written using JARVIS-Tools package.
data_Zr2Te2P
_symmetry_space_group_name_H-M  'R-3m'
_cell_length_a       10.1336
_cell_length_b       10.1336
_cell_length_c       10.1336
_cell_angle_alpha    21.9036
_cell_angle_beta     21.9037
_cell_angle_gamma    21.9036

_symmetry_Int_Tables_number  166
_chemical_formula_structural  Zr2Te2P
_chemical_formula_sum  Zr2Te2P
_cell_volume  126.94247781759249
_cell_formula_units_Z  1
loop_
  _symmetry_equiv_pos_site_id
 _symmetry_equiv_pos_as_xyz
 1  'x, y, z'
loop_
 _atom_site_type_symbol
 _atom_site_label
 _atom_site_symmetry_multiplicity
 _atom_site_fract_x
 _atom_site_fract_y
 _atom_site_fract_z
 _atom_site_fract_occupancy
 P  P1  1  0.00000  0.00000  0.00000  1
 Te  Te1  1  0.22072  0.22072  0.22072  1
 Te  Te2  1  0.77928  0.77928  0.77928  1
 Zr  Zr1  1  0.61793  0.61793  0.61793  1
 Zr  Zr2  1  0.38207  0.38207  0.38207  1
