CIF file written using JARVIS-Tools package.
data_Fe3C
_symmetry_space_group_name_H-M  'P6_322'
_cell_length_a       4.63849
_cell_length_b       4.63849
_cell_length_c       4.29769
_cell_angle_alpha    90
_cell_angle_beta     90
_cell_angle_gamma    120

_symmetry_Int_Tables_number  182
_chemical_formula_structural  Fe3C
_chemical_formula_sum  Fe6C2
_cell_volume  80.0789979440813
_cell_formula_units_Z  2
loop_
  _symmetry_equiv_pos_site_id
 _symmetry_equiv_pos_as_xyz
 1  'x, y, z'
loop_
 _atom_site_type_symbol
 _atom_site_label
 _atom_site_symmetry_multiplicity
 _atom_site_fract_x
 _atom_site_fract_y
 _atom_site_fract_z
 _atom_site_fract_occupancy
 C  C1  1  0.66667  0.33333  0.25000  1
 C  C2  1  0.33333  0.66667  0.75000  1
 Fe  Fe1  1  0.31893  0.00000  0.50000  1
 Fe  Fe2  1  0.68107  -0.00000  0.00000  1
 Fe  Fe3  1  0.31893  0.31893  0.00000  1
 Fe  Fe4  1  0.00000  0.31893  0.50000  1
 Fe  Fe5  1  0.68107  0.68107  0.50000  1
 Fe  Fe6  1  -0.00000  0.68107  0.00000  1
