CIF file written using JARVIS-Tools package.
data_TmMoClO4
_symmetry_space_group_name_H-M  'C2/m'
_cell_length_a       6.21101
_cell_length_b       6.21101
_cell_length_c       6.79447
_cell_angle_alpha    75.6973
_cell_angle_beta     75.6973
_cell_angle_gamma    70.3471

_symmetry_Int_Tables_number  12
_chemical_formula_structural  TmMoClO4
_chemical_formula_sum  Tm2Mo2Cl2O8
_cell_volume  235.2961070434106
_cell_formula_units_Z  2
loop_
  _symmetry_equiv_pos_site_id
 _symmetry_equiv_pos_as_xyz
 1  'x, y, z'
loop_
 _atom_site_type_symbol
 _atom_site_label
 _atom_site_symmetry_multiplicity
 _atom_site_fract_x
 _atom_site_fract_y
 _atom_site_fract_z
 _atom_site_fract_occupancy
 Cl  Cl1  1  0.00898  0.00898  0.23651  1
 Cl  Cl2  1  0.99102  0.99102  0.76349  1
 Mo  Mo1  1  0.63747  0.63747  0.73021  1
 Mo  Mo2  1  0.36253  0.36253  0.26979  1
 O  O1  1  0.29506  0.29506  0.53890  1
 O  O2  1  0.70494  0.70494  0.46110  1
 O  O3  1  0.49105  0.10635  0.15464  1
 O  O4  1  0.54443  0.54443  0.19832  1
 O  O5  1  0.89365  0.50895  0.84536  1
 O  O6  1  0.10635  0.49105  0.15464  1
 O  O7  1  0.45557  0.45557  0.80168  1
 O  O8  1  0.50895  0.89365  0.84536  1
 Tm  Tm1  1  0.22194  0.22194  0.89093  1
 Tm  Tm2  1  0.77806  0.77806  0.10907  1
