CIF file written using JARVIS-Tools package.
data_Sr3CdIrO6
_symmetry_space_group_name_H-M  'R-3c'
_cell_length_a       6.82728
_cell_length_b       6.82728
_cell_length_c       6.82728
_cell_angle_alpha    89.9066
_cell_angle_beta     89.9066
_cell_angle_gamma    89.9066

_symmetry_Int_Tables_number  167
_chemical_formula_structural  Sr3CdIrO6
_chemical_formula_sum  Sr6Cd2Ir2O2
_cell_volume  318.2302582175115
_cell_formula_units_Z  2
loop_
  _symmetry_equiv_pos_site_id
 _symmetry_equiv_pos_as_xyz
 1  'x, y, z'
loop_
 _atom_site_type_symbol
 _atom_site_label
 _atom_site_symmetry_multiplicity
 _atom_site_fract_x
 _atom_site_fract_y
 _atom_site_fract_z
 _atom_site_fract_occupancy
 Cd  Cd1  1  0.25000  0.25000  0.25000  1
 Cd  Cd2  1  0.75000  0.75000  0.75000  1
 Ir  Ir1  1  0.50000  0.50000  0.50000  1
 Ir  Ir2  1  0.00000  0.00000  0.00000  1
 O  O1  1  0.08411  0.28393  0.94788  1
 O  O2  1  0.58411  0.44788  0.78393  1
 O  O3  1  0.44788  0.78393  0.58411  1
 O  O4  1  0.05212  0.91589  0.71607  1
 O  O5  1  0.91589  0.71607  0.05212  1
 O  O6  1  0.71607  0.05212  0.91589  1
 O  O7  1  0.21607  0.41589  0.55212  1
 O  O8  1  0.41589  0.55212  0.21607  1
 O  O9  1  0.28393  0.94788  0.08411  1
 O  O10  1  0.78393  0.58411  0.44788  1
 O  O11  1  0.94788  0.08411  0.28393  1
 O  O12  1  0.55212  0.21607  0.41589  1
 Sr  Sr1  1  0.88748  0.25000  0.61252  1
 Sr  Sr2  1  0.25000  0.61252  0.88748  1
 Sr  Sr3  1  0.11252  0.75000  0.38748  1
 Sr  Sr4  1  0.61252  0.88748  0.25000  1
 Sr  Sr5  1  0.38748  0.11252  0.75000  1
 Sr  Sr6  1  0.75000  0.38748  0.11252  1
