CIF file written using JARVIS-Tools package.
data_MoO3
_symmetry_space_group_name_H-M  'Cmcm'
_cell_length_a       7.38612
_cell_length_b       7.38612
_cell_length_c       3.75449
_cell_angle_alpha    90
_cell_angle_beta     90
_cell_angle_gamma    150.423

_symmetry_Int_Tables_number  63
_chemical_formula_structural  MoO3
_chemical_formula_sum  Mo2O6
_cell_volume  101.09948061554418
_cell_formula_units_Z  2
loop_
  _symmetry_equiv_pos_site_id
 _symmetry_equiv_pos_as_xyz
 1  'x, y, z'
loop_
 _atom_site_type_symbol
 _atom_site_label
 _atom_site_symmetry_multiplicity
 _atom_site_fract_x
 _atom_site_fract_y
 _atom_site_fract_z
 _atom_site_fract_occupancy
 Mo  Mo1  1  0.10479  0.89521  0.25000  1
 Mo  Mo2  1  0.89521  0.10479  0.75000  1
 O  O1  1  0.93104  0.06896  0.25000  1
 O  O2  1  0.06896  0.93104  0.75000  1
 O  O3  1  0.58432  0.41568  0.25000  1
 O  O4  1  0.41568  0.58432  0.75000  1
 O  O5  1  0.22183  0.77817  0.25000  1
 O  O6  1  0.77817  0.22183  0.75000  1
