CIF file written using JARVIS-Tools package.
data_Na2CuF4
_symmetry_space_group_name_H-M  'I4/mmm'
_cell_length_a       6.38743
_cell_length_b       6.38743
_cell_length_c       6.38743
_cell_angle_alpha    144.263
_cell_angle_beta     144.263
_cell_angle_gamma    51.4347

_symmetry_Int_Tables_number  139
_chemical_formula_structural  Na2CuF4
_chemical_formula_sum  Na2CuF4
_cell_volume  88.41963136424874
_cell_formula_units_Z  1
loop_
  _symmetry_equiv_pos_site_id
 _symmetry_equiv_pos_as_xyz
 1  'x, y, z'
loop_
 _atom_site_type_symbol
 _atom_site_label
 _atom_site_symmetry_multiplicity
 _atom_site_fract_x
 _atom_site_fract_y
 _atom_site_fract_z
 _atom_site_fract_occupancy
 Cu  Cu1  1  0.00000  0.00000  0.00000  1
 F  F1  1  0.50000  0.00000  0.50000  1
 F  F2  1  0.00000  0.50000  0.50000  1
 F  F3  1  0.75000  0.25000  0.50000  1
 F  F4  1  0.25000  0.75000  0.50000  1
 Na  Na1  1  0.33612  0.33612  -0.00000  1
 Na  Na2  1  0.66388  0.66388  0.00000  1
