CIF file written using JARVIS-Tools package.
data_TeF6
_symmetry_space_group_name_H-M  'R-3'
_cell_length_a       5.46672
_cell_length_b       5.46672
_cell_length_c       5.46673
_cell_angle_alpha    54.7621
_cell_angle_beta     54.7621
_cell_angle_gamma    54.7622

_symmetry_Int_Tables_number  148
_chemical_formula_structural  TeF6
_chemical_formula_sum  TeF6
_cell_volume  101.43000603761952
_cell_formula_units_Z  1
loop_
  _symmetry_equiv_pos_site_id
 _symmetry_equiv_pos_as_xyz
 1  'x, y, z'
loop_
 _atom_site_type_symbol
 _atom_site_label
 _atom_site_symmetry_multiplicity
 _atom_site_fract_x
 _atom_site_fract_y
 _atom_site_fract_z
 _atom_site_fract_occupancy
 F  F1  1  0.08244  0.37797  0.77246  1
 F  F2  1  0.77246  0.08244  0.37797  1
 F  F3  1  0.62203  0.22754  0.91756  1
 F  F4  1  0.22754  0.91756  0.62203  1
 F  F5  1  0.91756  0.62203  0.22754  1
 F  F6  1  0.37797  0.77246  0.08244  1
 Te  Te1  1  0.00000  0.00000  0.00000  1
