CIF file written using JARVIS-Tools package.
data_Zr3TiCu2
_symmetry_space_group_name_H-M  'P4mm'
_cell_length_a       3.15053
_cell_length_b       3.15053
_cell_length_c       11.0214
_cell_angle_alpha    90
_cell_angle_beta     90
_cell_angle_gamma    90

_symmetry_Int_Tables_number  99
_chemical_formula_structural  Zr3TiCu2
_chemical_formula_sum  Zr3TiCu2
_cell_volume  109.3971529685334
_cell_formula_units_Z  1
loop_
  _symmetry_equiv_pos_site_id
 _symmetry_equiv_pos_as_xyz
 1  'x, y, z'
loop_
 _atom_site_type_symbol
 _atom_site_label
 _atom_site_symmetry_multiplicity
 _atom_site_fract_x
 _atom_site_fract_y
 _atom_site_fract_z
 _atom_site_fract_occupancy
 Cu  Cu1  1  0.00000  0.00000  0.02343  1
 Cu  Cu2  1  0.50000  0.50000  0.49082  1
 Ti  Ti1  1  0.50000  0.50000  0.15212  1
 Zr  Zr1  1  0.00000  0.00000  0.65210  1
 Zr  Zr2  1  0.00000  0.00000  0.32913  1
 Zr  Zr3  1  0.50000  0.50000  0.85240  1
