CIF file written using JARVIS-Tools package.
data_GeTe4Pb3
_symmetry_space_group_name_H-M  'P4/mmm'
_cell_length_a       4.56004
_cell_length_b       4.56004
_cell_length_c       12.8699
_cell_angle_alpha    90
_cell_angle_beta     90
_cell_angle_gamma    90

_symmetry_Int_Tables_number  123
_chemical_formula_structural  GeTe4Pb3
_chemical_formula_sum  GeTe4Pb3
_cell_volume  267.6176616681081
_cell_formula_units_Z  1
loop_
  _symmetry_equiv_pos_site_id
 _symmetry_equiv_pos_as_xyz
 1  'x, y, z'
loop_
 _atom_site_type_symbol
 _atom_site_label
 _atom_site_symmetry_multiplicity
 _atom_site_fract_x
 _atom_site_fract_y
 _atom_site_fract_z
 _atom_site_fract_occupancy
 Ge  Ge1  1  0.00000  0.00000  0.00000  1
 Pb  Pb1  1  0.50000  0.50000  0.75284  1
 Pb  Pb2  1  0.00000  0.00000  0.50000  1
 Pb  Pb3  1  0.50000  0.50000  0.24716  1
 Te  Te1  1  0.00000  0.00000  0.23874  1
 Te  Te2  1  0.50000  0.50000  0.00000  1
 Te  Te3  1  0.00000  0.00000  0.76126  1
 Te  Te4  1  0.50000  0.50000  0.50000  1
