CIF file written using JARVIS-Tools package.
data_Li4Mg
_symmetry_space_group_name_H-M  'R-3m'
_cell_length_a       12.6544
_cell_length_b       12.6544
_cell_length_c       12.6544
_cell_angle_alpha    13.9396
_cell_angle_beta     13.9397
_cell_angle_gamma    13.9396

_symmetry_Int_Tables_number  166
_chemical_formula_structural  Li4Mg
_chemical_formula_sum  Li4Mg
_cell_volume  102.34562054969156
_cell_formula_units_Z  1
loop_
  _symmetry_equiv_pos_site_id
 _symmetry_equiv_pos_as_xyz
 1  'x, y, z'
loop_
 _atom_site_type_symbol
 _atom_site_label
 _atom_site_symmetry_multiplicity
 _atom_site_fract_x
 _atom_site_fract_y
 _atom_site_fract_z
 _atom_site_fract_occupancy
 Li  Li1  1  0.59953  0.59953  0.59953  1
 Li  Li2  1  0.20017  0.20017  0.20017  1
 Li  Li3  1  0.79983  0.79983  0.79983  1
 Li  Li4  1  0.40047  0.40047  0.40047  1
 Mg  Mg1  1  0.00000  0.00000  0.00000  1
