CIF file written using JARVIS-Tools package.
data_AsRhO4
_symmetry_space_group_name_H-M  'Cmmm'
_cell_length_a       4.50499
_cell_length_b       4.50499
_cell_length_c       3.05956
_cell_angle_alpha    90
_cell_angle_beta     90
_cell_angle_gamma    91.4408

_symmetry_Int_Tables_number  65
_chemical_formula_structural  AsRhO4
_chemical_formula_sum  AsRhO4
_cell_volume  62.07379280526797
_cell_formula_units_Z  1
loop_
  _symmetry_equiv_pos_site_id
 _symmetry_equiv_pos_as_xyz
 1  'x, y, z'
loop_
 _atom_site_type_symbol
 _atom_site_label
 _atom_site_symmetry_multiplicity
 _atom_site_fract_x
 _atom_site_fract_y
 _atom_site_fract_z
 _atom_site_fract_occupancy
 As  As1  1  0.00000  0.00000  0.00000  1
 O  O1  1  0.18624  0.81376  0.50000  1
 O  O2  1  0.81376  0.18624  0.50000  1
 O  O3  1  0.29489  0.29489  0.00000  1
 O  O4  1  0.70511  0.70511  0.00000  1
 Rh  Rh1  1  0.50000  0.50000  0.50000  1
