CIF file written using JARVIS-Tools package.
data_MgTi2O4
_symmetry_space_group_name_H-M  'Fd-3m'
_cell_length_a       6.0163
_cell_length_b       6.0163
_cell_length_c       6.01674
_cell_angle_alpha    119.998
_cell_angle_beta     119.998
_cell_angle_gamma    90

_symmetry_Int_Tables_number  227
_chemical_formula_structural  MgTi2O4
_chemical_formula_sum  Mg2Ti4O8
_cell_volume  154.00576162786484
_cell_formula_units_Z  2
loop_
  _symmetry_equiv_pos_site_id
 _symmetry_equiv_pos_as_xyz
 1  'x, y, z'
loop_
 _atom_site_type_symbol
 _atom_site_label
 _atom_site_symmetry_multiplicity
 _atom_site_fract_x
 _atom_site_fract_y
 _atom_site_fract_z
 _atom_site_fract_occupancy
 Mg  Mg1  1  0.37500  0.62500  0.75000  1
 Mg  Mg2  1  0.62500  0.37500  0.25000  1
 O  O1  1  0.75815  0.77434  0.51630  1
 O  O2  1  0.75804  0.24185  0.98370  1
 O  O3  1  0.22566  0.24185  0.98370  1
 O  O4  1  0.24185  0.22566  0.48370  1
 O  O5  1  0.24185  0.75804  0.48370  1
 O  O6  1  0.24196  0.75815  0.01630  1
 O  O7  1  0.75815  0.24196  0.51630  1
 O  O8  1  0.77434  0.75815  0.01630  1
 Ti  Ti1  1  -0.00000  -0.00000  0.50000  1
 Ti  Ti2  1  -0.00000  0.50000  -0.00000  1
 Ti  Ti3  1  0.50000  -0.00000  0.50000  1
 Ti  Ti4  1  0.00000  0.00000  0.00000  1
