CIF file written using JARVIS-Tools package.
data_Ti2CN
_symmetry_space_group_name_H-M  'R-3m'
_cell_length_a       5.26322
_cell_length_b       5.26322
_cell_length_c       5.26322
_cell_angle_alpha    33.4687
_cell_angle_beta     33.4686
_cell_angle_gamma    33.4686

_symmetry_Int_Tables_number  166
_chemical_formula_structural  Ti2CN
_chemical_formula_sum  Ti2CN
_cell_volume  39.490723414050684
_cell_formula_units_Z  1
loop_
  _symmetry_equiv_pos_site_id
 _symmetry_equiv_pos_as_xyz
 1  'x, y, z'
loop_
 _atom_site_type_symbol
 _atom_site_label
 _atom_site_symmetry_multiplicity
 _atom_site_fract_x
 _atom_site_fract_y
 _atom_site_fract_z
 _atom_site_fract_occupancy
 C  C1  1  0.00000  0.00000  0.00000  1
 N  N1  1  0.50000  0.50000  0.50000  1
 Ti  Ti1  1  0.25063  0.25063  0.25063  1
 Ti  Ti2  1  0.74937  0.74937  0.74937  1
