CIF file written using JARVIS-Tools package.
data_MgCo6Ge6
_symmetry_space_group_name_H-M  'P6/mmm'
_cell_length_a       5.08139
_cell_length_b       5.08139
_cell_length_c       7.70894
_cell_angle_alpha    90
_cell_angle_beta     90
_cell_angle_gamma    120

_symmetry_Int_Tables_number  191
_chemical_formula_structural  MgCo6Ge6
_chemical_formula_sum  MgCo6Ge6
_cell_volume  172.38133325375347
_cell_formula_units_Z  1
loop_
  _symmetry_equiv_pos_site_id
 _symmetry_equiv_pos_as_xyz
 1  'x, y, z'
loop_
 _atom_site_type_symbol
 _atom_site_label
 _atom_site_symmetry_multiplicity
 _atom_site_fract_x
 _atom_site_fract_y
 _atom_site_fract_z
 _atom_site_fract_occupancy
 Co  Co1  1  0.50000  -0.00000  0.74996  1
 Co  Co2  1  -0.00000  0.50000  0.74996  1
 Co  Co3  1  0.50000  0.50000  0.74996  1
 Co  Co4  1  -0.00000  0.50000  0.25004  1
 Co  Co5  1  0.50000  -0.00000  0.25004  1
 Co  Co6  1  0.50000  0.50000  0.25004  1
 Ge  Ge1  1  0.66667  0.33333  0.50000  1
 Ge  Ge2  1  0.33333  0.66667  0.50000  1
 Ge  Ge3  1  0.66667  0.33333  0.00000  1
 Ge  Ge4  1  0.00000  0.00000  0.33662  1
 Ge  Ge5  1  0.00000  0.00000  0.66338  1
 Ge  Ge6  1  0.33333  0.66667  0.00000  1
 Mg  Mg1  1  0.00000  0.00000  0.00000  1
