CIF file written using JARVIS-Tools package.
data_RhCl2
_symmetry_space_group_name_H-M  'P4_2/mnm'
_cell_length_a       5.64182
_cell_length_b       5.64182
_cell_length_c       3.73149
_cell_angle_alpha    90
_cell_angle_beta     90
_cell_angle_gamma    90

_symmetry_Int_Tables_number  136
_chemical_formula_structural  RhCl2
_chemical_formula_sum  Rh2Cl4
_cell_volume  118.77389189594979
_cell_formula_units_Z  2
loop_
  _symmetry_equiv_pos_site_id
 _symmetry_equiv_pos_as_xyz
 1  'x, y, z'
loop_
 _atom_site_type_symbol
 _atom_site_label
 _atom_site_symmetry_multiplicity
 _atom_site_fract_x
 _atom_site_fract_y
 _atom_site_fract_z
 _atom_site_fract_occupancy
 Cl  Cl1  1  0.30237  0.30237  0.00000  1
 Cl  Cl2  1  0.69763  0.69763  0.00000  1
 Cl  Cl3  1  0.19763  0.80237  0.50000  1
 Cl  Cl4  1  0.80237  0.19763  0.50000  1
 Rh  Rh1  1  0.00000  0.00000  0.00000  1
 Rh  Rh2  1  0.50000  0.50000  0.50000  1
