CIF file written using JARVIS-Tools package.
data_Na4Ge2Se5
_symmetry_space_group_name_H-M  'P-1'
_cell_length_a       7.06035
_cell_length_b       8.1177
_cell_length_c       10.7186
_cell_angle_alpha    73.5415
_cell_angle_beta     71.0355
_cell_angle_gamma    82.0217

_symmetry_Int_Tables_number  2
_chemical_formula_structural  Na4Ge2Se5
_chemical_formula_sum  Na8Ge4Se0
_cell_volume  556.4319063741204
_cell_formula_units_Z  2
loop_
  _symmetry_equiv_pos_site_id
 _symmetry_equiv_pos_as_xyz
 1  'x, y, z'
loop_
 _atom_site_type_symbol
 _atom_site_label
 _atom_site_symmetry_multiplicity
 _atom_site_fract_x
 _atom_site_fract_y
 _atom_site_fract_z
 _atom_site_fract_occupancy
 Ge  Ge1  1  0.42572  0.84280  0.23052  1
 Ge  Ge2  1  0.57428  0.15720  0.76948  1
 Ge  Ge3  1  0.38217  0.15902  0.16731  1
 Ge  Ge4  1  0.61783  0.84098  0.83269  1
 Na  Na1  1  0.72736  0.50937  0.10368  1
 Na  Na2  1  0.27264  0.49063  0.89632  1
 Na  Na3  1  0.20415  -0.00017  0.59240  1
 Na  Na4  1  0.50000  0.50000  0.50000  1
 Na  Na5  1  0.08798  0.47996  0.31465  1
 Na  Na6  1  0.91202  0.52004  0.68535  1
 Na  Na7  1  0.79585  0.00017  0.40760  1
 Na  Na8  1  0.00000  0.00000  0.00000  1
 Se  Se1  1  0.46248  0.25512  0.33106  1
 Se  Se2  1  0.25375  0.24640  0.74421  1
 Se  Se3  1  0.05475  0.24578  0.15423  1
 Se  Se4  1  0.94525  0.75422  0.84577  1
 Se  Se5  1  0.64757  0.25912  0.94742  1
 Se  Se6  1  0.35243  0.74088  0.05258  1
 Se  Se7  1  0.83931  0.25201  0.56840  1
 Se  Se8  1  0.16069  0.74799  0.43160  1
 Se  Se9  1  0.53752  0.74488  0.66894  1
 Se  Se10  1  0.74625  0.75360  0.25579  1
