CIF file written using JARVIS-Tools package.
data_CaNiN
_symmetry_space_group_name_H-M  'P4_2/mmc'
_cell_length_a       3.55281
_cell_length_b       3.55281
_cell_length_c       6.97691
_cell_angle_alpha    90
_cell_angle_beta     90
_cell_angle_gamma    90

_symmetry_Int_Tables_number  131
_chemical_formula_structural  CaNiN
_chemical_formula_sum  Ca2Ni2N2
_cell_volume  88.06578086210563
_cell_formula_units_Z  2
loop_
  _symmetry_equiv_pos_site_id
 _symmetry_equiv_pos_as_xyz
 1  'x, y, z'
loop_
 _atom_site_type_symbol
 _atom_site_label
 _atom_site_symmetry_multiplicity
 _atom_site_fract_x
 _atom_site_fract_y
 _atom_site_fract_z
 _atom_site_fract_occupancy
 Ca  Ca1  1  0.00000  0.00000  0.75000  1
 Ca  Ca2  1  0.00000  0.00000  0.25000  1
 N  N1  1  0.50000  0.00000  0.50000  1
 N  N2  1  0.00000  0.50000  0.00000  1
 Ni  Ni1  1  0.50000  0.50000  0.00000  1
 Ni  Ni2  1  0.50000  0.50000  0.50000  1
