CIF file written using JARVIS-Tools package.
data_NiB
_symmetry_space_group_name_H-M  'Cmcm'
_cell_length_a       2.97351
_cell_length_b       2.9777
_cell_length_c       3.96419
_cell_angle_alpha    90
_cell_angle_beta     112.027
_cell_angle_gamma    90

_symmetry_Int_Tables_number  63
_chemical_formula_structural  NiB
_chemical_formula_sum  Ni2B2
_cell_volume  32.5377637362129
_cell_formula_units_Z  2
loop_
  _symmetry_equiv_pos_site_id
 _symmetry_equiv_pos_as_xyz
 1  'x, y, z'
loop_
 _atom_site_type_symbol
 _atom_site_label
 _atom_site_symmetry_multiplicity
 _atom_site_fract_x
 _atom_site_fract_y
 _atom_site_fract_z
 _atom_site_fract_occupancy
 B  B1  1  0.43453  0.75000  0.86906  1
 B  B2  1  0.56547  0.25000  0.13094  1
 Ni  Ni1  1  0.14773  0.75000  0.29547  1
 Ni  Ni2  1  0.85227  0.25000  0.70453  1
