CIF file written using JARVIS-Tools package.
data_CeAlSi
_symmetry_space_group_name_H-M  'I4_1md'
_cell_length_a       7.87708
_cell_length_b       7.87708
_cell_length_c       7.87708
_cell_angle_alpha    148.88
_cell_angle_beta     148.88
_cell_angle_gamma    44.5881

_symmetry_Int_Tables_number  109
_chemical_formula_structural  CeAlSi
_chemical_formula_sum  Ce2Al2Si2
_cell_volume  130.16314799517872
_cell_formula_units_Z  2
loop_
  _symmetry_equiv_pos_site_id
 _symmetry_equiv_pos_as_xyz
 1  'x, y, z'
loop_
 _atom_site_type_symbol
 _atom_site_label
 _atom_site_symmetry_multiplicity
 _atom_site_fract_x
 _atom_site_fract_y
 _atom_site_fract_z
 _atom_site_fract_occupancy
 Al  Al1  1  0.16557  0.16557  -0.00000  1
 Al  Al2  1  0.91557  0.41557  0.50000  1
 Ce  Ce1  1  0.58229  0.58229  -0.00000  1
 Ce  Ce2  1  0.33229  0.83229  0.50000  1
 Si  Si1  1  0.99914  0.99914  -0.00000  1
 Si  Si2  1  0.74914  0.24914  0.50000  1
