CIF file written using JARVIS-Tools package.
data_Li2MnFeO4
_symmetry_space_group_name_H-M  'P2/m'
_cell_length_a       2.8399
_cell_length_b       4.86681
_cell_length_c       5.01925
_cell_angle_alpha    71.1575
_cell_angle_beta     90
_cell_angle_gamma    90

_symmetry_Int_Tables_number  10
_chemical_formula_structural  Li2MnFeO4
_chemical_formula_sum  Li2MnFeO4
_cell_volume  65.65470153334874
_cell_formula_units_Z  1
loop_
  _symmetry_equiv_pos_site_id
 _symmetry_equiv_pos_as_xyz
 1  'x, y, z'
loop_
 _atom_site_type_symbol
 _atom_site_label
 _atom_site_symmetry_multiplicity
 _atom_site_fract_x
 _atom_site_fract_y
 _atom_site_fract_z
 _atom_site_fract_occupancy
 Fe  Fe1  1  0.00000  0.50000  0.50000  1
 Li  Li1  1  0.00000  0.00000  0.00000  1
 Li  Li2  1  0.50000  0.50000  0.00000  1
 Mn  Mn1  1  0.50000  -0.00000  0.50000  1
 O  O1  1  0.00000  0.75962  0.72855  1
 O  O2  1  0.50000  0.25676  0.72590  1
 O  O3  1  0.00000  0.24038  0.27145  1
 O  O4  1  0.50000  0.74324  0.27410  1
