CIF file written using JARVIS-Tools package.
data_Tb3Li
_symmetry_space_group_name_H-M  'Pm-3m'
_cell_length_a       4.8437
_cell_length_b       4.8437
_cell_length_c       4.8437
_cell_angle_alpha    90
_cell_angle_beta     90
_cell_angle_gamma    90

_symmetry_Int_Tables_number  221
_chemical_formula_structural  Tb3Li
_chemical_formula_sum  Tb3Li
_cell_volume  113.64000258169452
_cell_formula_units_Z  1
loop_
  _symmetry_equiv_pos_site_id
 _symmetry_equiv_pos_as_xyz
 1  'x, y, z'
loop_
 _atom_site_type_symbol
 _atom_site_label
 _atom_site_symmetry_multiplicity
 _atom_site_fract_x
 _atom_site_fract_y
 _atom_site_fract_z
 _atom_site_fract_occupancy
 Li  Li1  1  0.00000  0.00000  0.00000  1
 Tb  Tb1  1  0.00000  0.50000  0.50000  1
 Tb  Tb2  1  0.50000  0.00000  0.50000  1
 Tb  Tb3  1  0.50000  0.50000  0.00000  1
