CIF file written using JARVIS-Tools package.
data_AgCl
_symmetry_space_group_name_H-M  'Fm-3m'
_cell_length_a       3.92871
_cell_length_b       3.92884
_cell_length_c       5.55408
_cell_angle_alpha    90
_cell_angle_beta     89.9601
_cell_angle_gamma    90

_symmetry_Int_Tables_number  225
_chemical_formula_structural  AgCl
_chemical_formula_sum  Ag2Cl2
_cell_volume  85.72881012032053
_cell_formula_units_Z  2
loop_
  _symmetry_equiv_pos_site_id
 _symmetry_equiv_pos_as_xyz
 1  'x, y, z'
loop_
 _atom_site_type_symbol
 _atom_site_label
 _atom_site_symmetry_multiplicity
 _atom_site_fract_x
 _atom_site_fract_y
 _atom_site_fract_z
 _atom_site_fract_occupancy
 Ag  Ag1  1  0.24970  0.25000  0.24991  1
 Ag  Ag2  1  0.75030  0.75000  0.75009  1
 Cl  Cl1  1  0.74974  0.75000  0.25006  1
 Cl  Cl2  1  0.25026  0.25000  0.74994  1
