CIF file written using JARVIS-Tools package.
data_Ta2Pd3Ru3
_symmetry_space_group_name_H-M  'Pmmm'
_cell_length_a       3.92178
_cell_length_b       4.01871
_cell_length_c       7.65401
_cell_angle_alpha    90
_cell_angle_beta     90
_cell_angle_gamma    90

_symmetry_Int_Tables_number  47
_chemical_formula_structural  Ta2Pd3Ru3
_chemical_formula_sum  Ta2Pd3Ru3
_cell_volume  120.63111239200505
_cell_formula_units_Z  1
loop_
  _symmetry_equiv_pos_site_id
 _symmetry_equiv_pos_as_xyz
 1  'x, y, z'
loop_
 _atom_site_type_symbol
 _atom_site_label
 _atom_site_symmetry_multiplicity
 _atom_site_fract_x
 _atom_site_fract_y
 _atom_site_fract_z
 _atom_site_fract_occupancy
 Pd  Pd1  1  0.50000  0.50000  0.24941  1
 Pd  Pd2  1  0.50000  0.50000  0.75059  1
 Pd  Pd3  1  0.00000  0.50000  0.50000  1
 Ru  Ru1  1  0.00000  0.50000  0.00000  1
 Ru  Ru2  1  0.50000  0.00000  0.50000  1
 Ru  Ru3  1  0.50000  0.00000  0.00000  1
 Ta  Ta1  1  0.00000  0.00000  0.24379  1
 Ta  Ta2  1  0.00000  0.00000  0.75621  1
