CIF file written using JARVIS-Tools package.
data_Ba3Sr
_symmetry_space_group_name_H-M  'P6_3/mmc'
_cell_length_a       8.66596
_cell_length_b       8.66596
_cell_length_c       7.11897
_cell_angle_alpha    90
_cell_angle_beta     90
_cell_angle_gamma    120

_symmetry_Int_Tables_number  194
_chemical_formula_structural  Ba3Sr
_chemical_formula_sum  Ba6Sr2
_cell_volume  463.0004842570541
_cell_formula_units_Z  2
loop_
  _symmetry_equiv_pos_site_id
 _symmetry_equiv_pos_as_xyz
 1  'x, y, z'
loop_
 _atom_site_type_symbol
 _atom_site_label
 _atom_site_symmetry_multiplicity
 _atom_site_fract_x
 _atom_site_fract_y
 _atom_site_fract_z
 _atom_site_fract_occupancy
 Ba  Ba1  1  0.16698  0.33396  0.25000  1
 Ba  Ba2  1  0.66604  0.83302  0.25000  1
 Ba  Ba3  1  0.16698  0.83302  0.25000  1
 Ba  Ba4  1  0.83302  0.66604  0.75000  1
 Ba  Ba5  1  0.33396  0.16698  0.75000  1
 Ba  Ba6  1  0.83302  0.16698  0.75000  1
 Sr  Sr1  1  0.33333  0.66667  0.75000  1
 Sr  Sr2  1  0.66667  0.33333  0.25000  1
