data_image0
_chemical_formula_structural       Ge3Pd3Sc3
_chemical_formula_sum              "Ge3 Pd3 Sc3"
_cell_length_a       6.77318
_cell_length_b       6.77318
_cell_length_c       3.94418
_cell_angle_alpha    90
_cell_angle_beta     90
_cell_angle_gamma    120

_space_group_name_H-M_alt    "P 1"
_space_group_IT_number       1

loop_
  _space_group_symop_operation_xyz
  'x, y, z'

loop_
  _atom_site_type_symbol
  _atom_site_label
  _atom_site_symmetry_multiplicity
  _atom_site_fract_x
  _atom_site_fract_y
  _atom_site_fract_z
  _atom_site_occupancy
  Ge  Ge1       1.0  0.66700  0.33300  0.00000  1.0000
  Ge  Ge2       1.0  0.33300  0.66700  0.00000  1.0000
  Ge  Ge3       1.0  0.00000  0.00000  0.50000  1.0000
  Pd  Pd1       1.0  0.25000  0.00001  0.00000  1.0000
  Pd  Pd2       1.0  0.00001  0.25000  0.00000  1.0000
  Pd  Pd3       1.0  0.75000  0.75000  0.00000  1.0000
  Sc  Sc1       1.0  0.57900  0.00002  0.50000  1.0000
  Sc  Sc2       1.0  0.42100  0.42100  0.50000  1.0000
  Sc  Sc3       1.0  0.00002  0.57900  0.50000  1.0000
