data_image0
_chemical_formula_structural       C32H20N4O8
_chemical_formula_sum              "C32 H20 N4 O8"
_cell_length_a       21.8356
_cell_length_b       7.40781
_cell_length_c       3.42981
_cell_angle_alpha    90
_cell_angle_beta     87.238
_cell_angle_gamma    90

_space_group_name_H-M_alt    "P 1"
_space_group_IT_number       1

loop_
  _space_group_symop_operation_xyz
  'x, y, z'

loop_
  _atom_site_type_symbol
  _atom_site_label
  _atom_site_symmetry_multiplicity
  _atom_site_fract_x
  _atom_site_fract_y
  _atom_site_fract_z
  _atom_site_occupancy
  C   C1        1.0  0.04960  0.21600  0.36100  1.0000
  C   C2        1.0  0.45000  0.71600  0.13900  1.0000
  C   C3        1.0  0.95000  0.78400  0.63900  1.0000
  C   C4        1.0  0.55000  0.28400  0.86100  1.0000
  C   C5        1.0  0.19600  0.58000  0.38300  1.0000
  C   C6        1.0  0.30400  0.08020  0.11700  1.0000
  C   C7        1.0  0.80400  0.42000  0.61700  1.0000
  C   C8        1.0  0.69600  0.92000  0.88300  1.0000
  C   C9        1.0  0.14200  0.64800  0.24000  1.0000
  C   C10       1.0  0.35800  0.14800  0.26000  1.0000
  C   C11       1.0  0.85800  0.35200  0.76000  1.0000
  C   C12       1.0  0.64200  0.85200  0.74000  1.0000
  C   C13       1.0  0.09030  0.53900  0.21600  1.0000
  C   C14       1.0  0.41000  0.03920  0.28400  1.0000
  C   C15       1.0  0.91000  0.46100  0.78400  1.0000
  C   C16       1.0  0.59000  0.96100  0.71600  1.0000
  C   C17       1.0  0.13900  0.10600  0.60200  1.0000
  C   C18       1.0  0.36100  0.60600  0.89800  1.0000
  C   C19       1.0  0.86100  0.89400  0.39800  1.0000
  C   C20       1.0  0.63900  0.39400  0.10200  1.0000
  C   C21       1.0  0.09520  0.36200  0.33900  1.0000
  C   C22       1.0  0.40500  0.86200  0.16100  1.0000
  C   C23       1.0  0.90500  0.63800  0.66100  1.0000
  C   C24       1.0  0.59500  0.13800  0.83900  1.0000
  C   C25       1.0  0.15000  0.29500  0.48200  1.0000
  C   C26       1.0  0.35000  0.79500  0.01840  1.0000
  C   C27       1.0  0.85000  0.70500  0.51800  1.0000
  C   C28       1.0  0.65000  0.20500  0.98200  1.0000
  C   C29       1.0  0.20100  0.40100  0.50700  1.0000
  C   C30       1.0  0.29900  0.90100  0.99300  1.0000
  C   C31       1.0  0.79900  0.59900  0.49300  1.0000
  C   C32       1.0  0.70100  0.09870  0.00668  1.0000
  H   H1        1.0  0.14100  0.78700  0.13900  1.0000
  H   H2        1.0  0.35900  0.28700  0.36100  1.0000
  H   H3        1.0  0.85900  0.21300  0.86100  1.0000
  H   H4        1.0  0.64100  0.71300  0.63900  1.0000
  H   H5        1.0  0.23600  0.66800  0.40200  1.0000
  H   H6        1.0  0.26400  0.16800  0.09850  1.0000
  H   H7        1.0  0.76400  0.33200  0.59800  1.0000
  H   H8        1.0  0.73600  0.83200  0.90200  1.0000
  H   H9        1.0  0.04850  0.59300  0.10000  1.0000
  H   H10       1.0  0.45200  0.09260  0.40000  1.0000
  H   H11       1.0  0.95200  0.40700  0.90000  1.0000
  H   H12       1.0  0.54800  0.90700  0.60000  1.0000
  H   H13       1.0  0.24300  0.35200  0.62400  1.0000
  H   H14       1.0  0.25700  0.85200  0.87600  1.0000
  H   H15       1.0  0.75700  0.64800  0.37600  1.0000
  H   H16       1.0  0.74300  0.14800  0.12400  1.0000
  H   H17       1.0  0.05420  0.94900  0.59600  1.0000
  H   H18       1.0  0.44600  0.44900  0.90400  1.0000
  H   H19       1.0  0.94600  0.05050  0.40400  1.0000
  H   H20       1.0  0.55400  0.55100  0.09560  1.0000
  N   N1        1.0  0.07800  0.06730  0.51600  1.0000
  N   N2        1.0  0.42200  0.56700  0.98400  1.0000
  N   N3        1.0  0.92200  0.93300  0.48400  1.0000
  N   N4        1.0  0.57800  0.43300  0.01640  1.0000
  O   O1        1.0  0.99600  0.22000  0.26200  1.0000
  O   O2        1.0  0.50400  0.72000  0.23800  1.0000
  O   O3        1.0  0.00428  0.78000  0.73800  1.0000
  O   O4        1.0  0.49600  0.28000  0.76200  1.0000
  O   O5        1.0  0.17300  0.00084  0.75600  1.0000
  O   O6        1.0  0.32700  0.50100  0.74400  1.0000
  O   O7        1.0  0.82700  0.99900  0.24400  1.0000
  O   O8        1.0  0.67300  0.49900  0.25600  1.0000
