data_image0
_chemical_formula_structural       C38H68
_chemical_formula_sum              "C38 H68"
_cell_length_a       9.705
_cell_length_b       6.97215
_cell_length_c       10.4575
_cell_angle_alpha    90
_cell_angle_beta     104.991
_cell_angle_gamma    90

_space_group_name_H-M_alt    "P 1"
_space_group_IT_number       1

loop_
  _space_group_symop_operation_xyz
  'x, y, z'

loop_
  _atom_site_type_symbol
  _atom_site_label
  _atom_site_symmetry_multiplicity
  _atom_site_fract_x
  _atom_site_fract_y
  _atom_site_fract_z
  _atom_site_occupancy
  C   C1        1.0  0.11100  0.73800  0.67300  1.0000
  C   C2        1.0  0.88900  0.23800  0.32700  1.0000
  C   C3        1.0  0.31300  0.66300  0.97700  1.0000
  C   C4        1.0  0.68700  0.16300  0.02290  1.0000
  C   C5        1.0  0.19900  0.96400  0.27500  1.0000
  C   C6        1.0  0.80100  0.46400  0.72500  1.0000
  C   C7        1.0  0.18400  0.74600  0.26400  1.0000
  C   C8        1.0  0.81600  0.24600  0.73600  1.0000
  C   C9        1.0  0.15300  0.66000  0.38800  1.0000
  C   C10       1.0  0.84700  0.16000  0.61200  1.0000
  C   C11       1.0  0.23900  0.63500  0.64400  1.0000
  C   C12       1.0  0.76100  0.13500  0.35600  1.0000
  C   C13       1.0  0.09560  0.01290  0.02640  1.0000
  C   C14       1.0  0.90400  0.51300  0.97400  1.0000
  C   C15       1.0  0.20600  0.28500  0.16600  1.0000
  C   C16       1.0  0.79400  0.78500  0.83400  1.0000
  C   C17       1.0  0.21200  0.06780  0.14900  1.0000
  C   C18       1.0  0.78800  0.56800  0.85100  1.0000
  C   C19       1.0  0.32300  0.00727  0.39500  1.0000
  C   C20       1.0  0.67700  0.50700  0.60500  1.0000
  C   C21       1.0  0.26800  0.71200  0.51300  1.0000
  C   C22       1.0  0.73200  0.21200  0.48700  1.0000
  C   C23       1.0  0.30000  0.92800  0.52300  1.0000
  C   C24       1.0  0.70000  0.42800  0.47700  1.0000
  C   C25       1.0  0.35100  0.35400  0.86300  1.0000
  C   C26       1.0  0.64900  0.85400  0.13700  1.0000
  C   C27       1.0  0.20800  0.32500  0.76300  1.0000
  C   C28       1.0  0.79200  0.82500  0.23700  1.0000
  C   C29       1.0  0.20700  0.41900  0.63100  1.0000
  C   C30       1.0  0.79300  0.91900  0.36900  1.0000
  C   C31       1.0  0.43000  0.96800  0.63900  1.0000
  C   C32       1.0  0.57000  0.46800  0.36100  1.0000
  C   C33       1.0  0.41800  0.87900  0.76900  1.0000
  C   C34       1.0  0.58200  0.37900  0.23100  1.0000
  C   C35       1.0  0.37900  0.66700  0.75300  1.0000
  C   C36       1.0  0.62100  0.16700  0.24700  1.0000
  C   C37       1.0  0.39100  0.56600  0.88600  1.0000
  C   C38       1.0  0.60900  0.06560  0.11400  1.0000
  H   H1        1.0  0.32600  0.81900  0.97800  1.0000
  H   H2        1.0  0.67400  0.31900  0.02150  1.0000
  H   H3        1.0  0.19800  0.63300  0.94900  1.0000
  H   H4        1.0  0.80200  0.13300  0.05140  1.0000
  H   H5        1.0  0.99100  0.06210  0.03540  1.0000
  H   H6        1.0  0.00917  0.56200  0.96500  1.0000
  H   H7        1.0  0.11400  0.08180  0.93800  1.0000
  H   H8        1.0  0.88600  0.58200  0.06230  1.0000
  H   H9        1.0  0.10700  0.32500  0.19200  1.0000
  H   H10       1.0  0.89300  0.82500  0.80800  1.0000
  H   H11       1.0  0.20500  0.35900  0.07360  1.0000
  H   H12       1.0  0.79500  0.85900  0.92600  1.0000
  H   H13       1.0  0.42100  0.94200  0.37800  1.0000
  H   H14       1.0  0.57900  0.44200  0.62200  1.0000
  H   H15       1.0  0.34300  0.16300  0.40700  1.0000
  H   H16       1.0  0.65700  0.66300  0.59300  1.0000
  H   H17       1.0  0.08770  0.85800  0.00787  1.0000
  H   H18       1.0  0.91200  0.35800  0.99200  1.0000
  H   H19       1.0  0.68400  0.52900  0.86800  1.0000
  H   H20       1.0  0.31600  0.02920  0.13200  1.0000
  H   H21       1.0  0.08990  0.68700  0.76500  1.0000
  H   H22       1.0  0.91000  0.18700  0.23500  1.0000
  H   H23       1.0  0.35300  0.61300  0.07930  1.0000
  H   H24       1.0  0.64700  0.11300  0.92100  1.0000
  H   H25       1.0  0.01380  0.71100  0.59300  1.0000
  H   H26       1.0  0.98600  0.21100  0.40700  1.0000
  H   H27       1.0  0.12400  0.89400  0.68300  1.0000
  H   H28       1.0  0.87600  0.39400  0.31700  1.0000
  H   H29       1.0  0.29600  0.34100  0.24300  1.0000
  H   H30       1.0  0.70400  0.84100  0.75700  1.0000
  H   H31       1.0  0.90000  0.20300  0.82300  1.0000
  H   H32       1.0  0.09950  0.70300  0.17700  1.0000
  H   H33       1.0  0.89900  0.51900  0.70300  1.0000
  H   H34       1.0  0.10100  0.01910  0.29700  1.0000
  H   H35       1.0  0.66200  0.45700  0.19400  1.0000
  H   H36       1.0  0.33800  0.95700  0.80600  1.0000
  H   H37       1.0  0.47600  0.40900  0.38700  1.0000
  H   H38       1.0  0.52400  0.90900  0.61300  1.0000
  H   H39       1.0  0.55200  0.62400  0.35000  1.0000
  H   H40       1.0  0.44800  0.12400  0.65000  1.0000
  H   H41       1.0  0.79300  0.50300  0.45900  1.0000
  H   H42       1.0  0.20700  0.00325  0.54100  1.0000
  H   H43       1.0  0.36700  0.64000  0.50500  1.0000
  H   H44       1.0  0.63300  0.14000  0.49500  1.0000
  H   H45       1.0  0.95200  0.21100  0.60500  1.0000
  H   H46       1.0  0.04820  0.71100  0.39500  1.0000
  H   H47       1.0  0.14500  0.50300  0.37700  1.0000
  H   H48       1.0  0.85500  0.00343  0.62300  1.0000
  H   H49       1.0  0.28400  0.68600  0.25000  1.0000
  H   H50       1.0  0.71600  0.18600  0.75000  1.0000
  H   H51       1.0  0.46200  0.59700  0.71300  1.0000
  H   H52       1.0  0.53800  0.09700  0.28700  1.0000
  H   H53       1.0  0.51900  0.89500  0.84500  1.0000
  H   H54       1.0  0.48100  0.39500  0.15500  1.0000
  H   H55       1.0  0.89700  0.89600  0.44000  1.0000
  H   H56       1.0  0.10300  0.39600  0.56000  1.0000
  H   H57       1.0  0.81500  0.67100  0.25200  1.0000
  H   H58       1.0  0.18500  0.17100  0.74800  1.0000
  H   H59       1.0  0.28800  0.34900  0.59000  1.0000
  H   H60       1.0  0.71200  0.84900  0.41000  1.0000
  H   H61       1.0  0.64900  0.78400  0.04210  1.0000
  H   H62       1.0  0.35100  0.28400  0.95800  1.0000
  H   H63       1.0  0.49500  0.07110  0.06120  1.0000
  H   H64       1.0  0.50500  0.57100  0.93900  1.0000
  H   H65       1.0  0.12100  0.38300  0.80200  1.0000
  H   H66       1.0  0.87900  0.88300  0.19800  1.0000
  H   H67       1.0  0.56600  0.78100  0.17300  1.0000
  H   H68       1.0  0.43400  0.28100  0.82700  1.0000
