data_image0
_chemical_formula_structural       C28H16O4
_chemical_formula_sum              "C28 H16 O4"
_cell_length_a       15.3179
_cell_length_b       3.63913
_cell_length_c       7.57755
_cell_angle_alpha    90
_cell_angle_beta     103.545
_cell_angle_gamma    90

_space_group_name_H-M_alt    "P 1"
_space_group_IT_number       1

loop_
  _space_group_symop_operation_xyz
  'x, y, z'

loop_
  _atom_site_type_symbol
  _atom_site_label
  _atom_site_symmetry_multiplicity
  _atom_site_fract_x
  _atom_site_fract_y
  _atom_site_fract_z
  _atom_site_occupancy
  C   C1        1.0  0.02830  0.14700  0.18100  1.0000
  C   C2        1.0  0.47200  0.64700  0.81900  1.0000
  C   C3        1.0  0.97200  0.85300  0.81900  1.0000
  C   C4        1.0  0.52800  0.35300  0.18100  1.0000
  C   C5        1.0  0.05470  0.28600  0.35700  1.0000
  C   C6        1.0  0.44500  0.78600  0.64300  1.0000
  C   C7        1.0  0.94500  0.71400  0.64300  1.0000
  C   C8        1.0  0.55500  0.21400  0.35700  1.0000
  C   C9        1.0  0.13800  0.45600  0.41700  1.0000
  C   C10       1.0  0.36200  0.95600  0.58300  1.0000
  C   C11       1.0  0.86200  0.54400  0.58300  1.0000
  C   C12       1.0  0.63800  0.04420  0.41700  1.0000
  C   C13       1.0  0.06190  0.01870  0.87900  1.0000
  C   C14       1.0  0.43800  0.51900  0.12100  1.0000
  C   C15       1.0  0.93800  0.98100  0.12100  1.0000
  C   C16       1.0  0.56200  0.48100  0.87900  1.0000
  C   C17       1.0  0.19600  0.47600  0.30100  1.0000
  C   C18       1.0  0.30400  0.97600  0.69900  1.0000
  C   C19       1.0  0.80400  0.52400  0.69900  1.0000
  C   C20       1.0  0.69600  0.02410  0.30100  1.0000
  C   C21       1.0  0.17200  0.33000  0.12700  1.0000
  C   C22       1.0  0.32800  0.83000  0.87300  1.0000
  C   C23       1.0  0.82800  0.67000  0.87300  1.0000
  C   C24       1.0  0.67200  0.17000  0.12700  1.0000
  C   C25       1.0  0.08750  0.16800  0.06490  1.0000
  C   C26       1.0  0.41200  0.66800  0.93500  1.0000
  C   C27       1.0  0.91200  0.83200  0.93500  1.0000
  C   C28       1.0  0.58800  0.33200  0.06490  1.0000
  H   H1        1.0  0.00868  0.25900  0.44600  1.0000
  H   H2        1.0  0.49100  0.75900  0.55400  1.0000
  H   H3        1.0  0.99100  0.74100  0.55400  1.0000
  H   H4        1.0  0.50900  0.24100  0.44600  1.0000
  H   H5        1.0  0.15500  0.57400  0.55300  1.0000
  H   H6        1.0  0.34500  0.07440  0.44700  1.0000
  H   H7        1.0  0.84500  0.42600  0.44700  1.0000
  H   H8        1.0  0.65500  0.92600  0.55300  1.0000
  H   H9        1.0  0.26200  0.60500  0.34600  1.0000
  H   H10       1.0  0.23800  0.10500  0.65400  1.0000
  H   H11       1.0  0.73800  0.39500  0.65400  1.0000
  H   H12       1.0  0.76200  0.89500  0.34600  1.0000
  H   H13       1.0  0.21800  0.34500  0.03700  1.0000
  H   H14       1.0  0.28200  0.84500  0.96300  1.0000
  H   H15       1.0  0.78200  0.65500  0.96300  1.0000
  H   H16       1.0  0.71800  0.15500  0.03700  1.0000
  O   O1        1.0  0.11500  0.02880  0.77700  1.0000
  O   O2        1.0  0.38500  0.52900  0.22300  1.0000
  O   O3        1.0  0.88500  0.97100  0.22300  1.0000
  O   O4        1.0  0.61500  0.47100  0.77700  1.0000
