data_image0
_chemical_formula_structural       F12O8Pb2Zr6
_chemical_formula_sum              "F12 O8 Pb2 Zr6"
_cell_length_a       7.61086
_cell_length_b       7.61086
_cell_length_c       7.61086
_cell_angle_alpha    60
_cell_angle_beta     60
_cell_angle_gamma    60

_space_group_name_H-M_alt    "P 1"
_space_group_IT_number       1

loop_
  _space_group_symop_operation_xyz
  'x, y, z'

loop_
  _atom_site_type_symbol
  _atom_site_label
  _atom_site_symmetry_multiplicity
  _atom_site_fract_x
  _atom_site_fract_y
  _atom_site_fract_z
  _atom_site_occupancy
  F   F1        1.0  0.83000  0.50000  0.50000  1.0000
  F   F2        1.0  0.50000  0.83000  0.17000  1.0000
  F   F3        1.0  0.17000  0.50000  0.50000  1.0000
  F   F4        1.0  0.50000  0.17000  0.83000  1.0000
  F   F5        1.0  0.50000  0.83000  0.50000  1.0000
  F   F6        1.0  0.50000  0.50000  0.83000  1.0000
  F   F7        1.0  0.83000  0.50000  0.17000  1.0000
  F   F8        1.0  0.83000  0.17000  0.50000  1.0000
  F   F9        1.0  0.17000  0.50000  0.83000  1.0000
  F   F10       1.0  0.50000  0.50000  0.17000  1.0000
  F   F11       1.0  0.50000  0.17000  0.50000  1.0000
  F   F12       1.0  0.17000  0.83000  0.50000  1.0000
  O   O1        1.0  0.11800  0.11800  0.11800  1.0000
  O   O2        1.0  0.11800  0.11800  0.64700  1.0000
  O   O3        1.0  0.64700  0.11800  0.11800  1.0000
  O   O4        1.0  0.11800  0.64700  0.11800  1.0000
  O   O5        1.0  0.88200  0.88200  0.88200  1.0000
  O   O6        1.0  0.88200  0.88200  0.35300  1.0000
  O   O7        1.0  0.88200  0.35300  0.88200  1.0000
  O   O8        1.0  0.35300  0.88200  0.88200  1.0000
  Pb  Pb1       1.0  0.25000  0.25000  0.25000  1.0000
  Pb  Pb2       1.0  0.75000  0.75000  0.75000  1.0000
  Zr  Zr1       1.0  0.77600  0.22400  0.22400  1.0000
  Zr  Zr2       1.0  0.22400  0.77600  0.77600  1.0000
  Zr  Zr3       1.0  0.22400  0.77600  0.22400  1.0000
  Zr  Zr4       1.0  0.22400  0.22400  0.77600  1.0000
  Zr  Zr5       1.0  0.77600  0.22400  0.77600  1.0000
  Zr  Zr6       1.0  0.77600  0.77600  0.22400  1.0000
