data_image0
_chemical_formula_structural       C4H32N24
_chemical_formula_sum              "C4 H32 N24"
_cell_length_a       6.93965
_cell_length_b       9.61625
_cell_length_c       6.1027
_cell_angle_alpha    90
_cell_angle_beta     113.632
_cell_angle_gamma    90

_space_group_name_H-M_alt    "P 1"
_space_group_IT_number       1

loop_
  _space_group_symop_operation_xyz
  'x, y, z'

loop_
  _atom_site_type_symbol
  _atom_site_label
  _atom_site_symmetry_multiplicity
  _atom_site_fract_x
  _atom_site_fract_y
  _atom_site_fract_z
  _atom_site_occupancy
  C   C1        1.0  0.23200  0.03450  0.19700  1.0000
  C   C2        1.0  0.76800  0.53500  0.30300  1.0000
  C   C3        1.0  0.76800  0.96500  0.80300  1.0000
  C   C4        1.0  0.23200  0.46500  0.69700  1.0000
  H   H1        1.0  0.90300  0.15000  0.13800  1.0000
  H   H2        1.0  0.09700  0.65000  0.36200  1.0000
  H   H3        1.0  0.09700  0.85000  0.86200  1.0000
  H   H4        1.0  0.90300  0.35000  0.63800  1.0000
  H   H5        1.0  0.22700  0.02290  0.77800  1.0000
  H   H6        1.0  0.77300  0.52300  0.72200  1.0000
  H   H7        1.0  0.77300  0.97700  0.22200  1.0000
  H   H8        1.0  0.22700  0.47700  0.27800  1.0000
  H   H9        1.0  0.45500  0.92200  0.12600  1.0000
  H   H10       1.0  0.54500  0.42200  0.37400  1.0000
  H   H11       1.0  0.54500  0.07840  0.87400  1.0000
  H   H12       1.0  0.45500  0.57800  0.62600  1.0000
  H   H13       1.0  0.25100  0.19200  0.75600  1.0000
  H   H14       1.0  0.74900  0.69200  0.74400  1.0000
  H   H15       1.0  0.74900  0.80800  0.24400  1.0000
  H   H16       1.0  0.25100  0.30800  0.25600  1.0000
  H   H17       1.0  0.14200  0.95100  0.44500  1.0000
  H   H18       1.0  0.85800  0.45100  0.05510  1.0000
  H   H19       1.0  0.85800  0.04880  0.55500  1.0000
  H   H20       1.0  0.14200  0.54900  0.94500  1.0000
  H   H21       1.0  0.02730  0.22700  0.40400  1.0000
  H   H22       1.0  0.97300  0.72700  0.09590  1.0000
  H   H23       1.0  0.97300  0.77300  0.59600  1.0000
  H   H24       1.0  0.02730  0.27300  0.90400  1.0000
  H   H25       1.0  0.36800  0.72300  0.31000  1.0000
  H   H26       1.0  0.63200  0.22300  0.19000  1.0000
  H   H27       1.0  0.63200  0.27700  0.69000  1.0000
  H   H28       1.0  0.36800  0.77700  0.81000  1.0000
  H   H29       1.0  0.53100  0.83200  0.50200  1.0000
  H   H30       1.0  0.46900  0.33200  0.99800  1.0000
  H   H31       1.0  0.46900  0.16800  0.49800  1.0000
  H   H32       1.0  0.53100  0.66800  0.00201  1.0000
  N   N1        1.0  0.15100  0.04460  0.36600  1.0000
  N   N2        1.0  0.84900  0.54500  0.13400  1.0000
  N   N3        1.0  0.84900  0.95500  0.63400  1.0000
  N   N4        1.0  0.15100  0.45500  0.86600  1.0000
  N   N5        1.0  0.20500  0.13600  0.04520  1.0000
  N   N6        1.0  0.79500  0.63600  0.45500  1.0000
  N   N7        1.0  0.79500  0.86400  0.95500  1.0000
  N   N8        1.0  0.20500  0.36400  0.54500  1.0000
  N   N9        1.0  0.33800  0.91600  0.19400  1.0000
  N   N10       1.0  0.66200  0.41600  0.30600  1.0000
  N   N11       1.0  0.66200  0.08430  0.80600  1.0000
  N   N12       1.0  0.33800  0.58400  0.69400  1.0000
  N   N13       1.0  0.37700  0.82000  0.38300  1.0000
  N   N14       1.0  0.62300  0.32000  0.11700  1.0000
  N   N15       1.0  0.62300  0.18000  0.61700  1.0000
  N   N16       1.0  0.37700  0.68000  0.88300  1.0000
  N   N17       1.0  0.29600  0.11100  0.87700  1.0000
  N   N18       1.0  0.70400  0.61100  0.62300  1.0000
  N   N19       1.0  0.70400  0.88900  0.12300  1.0000
  N   N20       1.0  0.29600  0.38900  0.37700  1.0000
  N   N21       1.0  0.97300  0.13100  0.31900  1.0000
  N   N22       1.0  0.02690  0.63100  0.18100  1.0000
  N   N23       1.0  0.02690  0.86900  0.68100  1.0000
  N   N24       1.0  0.97300  0.36900  0.81900  1.0000
