data_image0
_chemical_formula_structural       Ca2Mo2O12Sr4
_chemical_formula_sum              "Ca2 Mo2 O12 Sr4"
_cell_length_a       8.17849
_cell_length_b       5.77684
_cell_length_c       5.78509
_cell_angle_alpha    90
_cell_angle_beta     90
_cell_angle_gamma    90

_space_group_name_H-M_alt    "P 1"
_space_group_IT_number       1

loop_
  _space_group_symop_operation_xyz
  'x, y, z'

loop_
  _atom_site_type_symbol
  _atom_site_label
  _atom_site_symmetry_multiplicity
  _atom_site_fract_x
  _atom_site_fract_y
  _atom_site_fract_z
  _atom_site_occupancy
  Ca  Ca1       1.0  0.50000  0.00000  0.98900  1.0000
  Ca  Ca2       1.0  0.00000  0.50000  0.47500  1.0000
  Mo  Mo1       1.0  0.50000  0.50000  0.48600  1.0000
  Mo  Mo2       1.0  0.00000  0.00000  0.97700  1.0000
  O   O1        1.0  0.00000  0.77500  0.72900  1.0000
  O   O2        1.0  0.00000  0.22500  0.72900  1.0000
  O   O3        1.0  0.26600  0.50000  0.47400  1.0000
  O   O4        1.0  0.73400  0.50000  0.47400  1.0000
  O   O5        1.0  0.23400  0.00000  0.97700  1.0000
  O   O6        1.0  0.76600  0.00000  0.97700  1.0000
  O   O7        1.0  0.50000  0.25500  0.26700  1.0000
  O   O8        1.0  0.50000  0.74500  0.26700  1.0000
  O   O9        1.0  0.50000  0.27500  0.73300  1.0000
  O   O10       1.0  0.50000  0.72500  0.73300  1.0000
  O   O11       1.0  0.00000  0.24500  0.19400  1.0000
  O   O12       1.0  0.00000  0.75500  0.19400  1.0000
  Sr  Sr1       1.0  0.24900  0.50000  0.97900  1.0000
  Sr  Sr2       1.0  0.75100  0.50000  0.97900  1.0000
  Sr  Sr3       1.0  0.25200  0.00000  0.49400  1.0000
  Sr  Sr4       1.0  0.74800  0.00000  0.49400  1.0000
