data_image0
_chemical_formula_structural       Fe2In2O6
_chemical_formula_sum              "Fe2 In2 O6"
_cell_length_a       3.35847
_cell_length_b       3.35851
_cell_length_c       12.1832
_cell_angle_alpha    90
_cell_angle_beta     90
_cell_angle_gamma    120

_space_group_name_H-M_alt    "P 1"
_space_group_IT_number       1

loop_
  _space_group_symop_operation_xyz
  'x, y, z'

loop_
  _atom_site_type_symbol
  _atom_site_label
  _atom_site_symmetry_multiplicity
  _atom_site_fract_x
  _atom_site_fract_y
  _atom_site_fract_z
  _atom_site_occupancy
  Fe  Fe1       1.0  0.33300  0.66700  0.25000  1.0000
  Fe  Fe2       1.0  0.66700  0.33300  0.75000  1.0000
  In  In1       1.0  0.00000  0.00000  0.00000  1.0000
  In  In2       1.0  0.00000  0.00000  0.50000  1.0000
  O   O1        1.0  0.33300  0.66700  0.08580  1.0000
  O   O2        1.0  0.00000  0.00000  0.25000  1.0000
  O   O3        1.0  0.33300  0.66700  0.41400  1.0000
  O   O4        1.0  0.66700  0.33300  0.58600  1.0000
  O   O5        1.0  0.00002  0.00004  0.75000  1.0000
  O   O6        1.0  0.66700  0.33300  0.91400  1.0000
