data_image0
_chemical_formula_structural       CEu2N2O2
_chemical_formula_sum              "C1 Eu2 N2 O2"
_cell_length_a       3.84358
_cell_length_b       3.84351
_cell_length_c       8.36576
_cell_angle_alpha    90.0002
_cell_angle_beta     89.9996
_cell_angle_gamma    119.999

_space_group_name_H-M_alt    "P 1"
_space_group_IT_number       1

loop_
  _space_group_symop_operation_xyz
  'x, y, z'

loop_
  _atom_site_type_symbol
  _atom_site_label
  _atom_site_symmetry_multiplicity
  _atom_site_fract_x
  _atom_site_fract_y
  _atom_site_fract_z
  _atom_site_occupancy
  C   C1        1.0  0.00000  1.00000  0.50000  1.0000
  Eu  Eu1       1.0  0.33300  0.66700  0.18100  1.0000
  Eu  Eu2       1.0  0.66700  0.33300  0.81900  1.0000
  N   N1        1.0  0.00001  0.00001  0.35200  1.0000
  N   N2        1.0  0.00000  0.00000  0.64800  1.0000
  O   O1        1.0  0.66700  0.33300  0.09900  1.0000
  O   O2        1.0  0.33300  0.66700  0.90100  1.0000
