data_image0
_chemical_formula_structural       Bi2Er6Mn
_chemical_formula_sum              "Bi2 Er6 Mn1"
_cell_length_a       8.2235
_cell_length_b       8.2235
_cell_length_c       4.24177
_cell_angle_alpha    90
_cell_angle_beta     90
_cell_angle_gamma    119.996

_space_group_name_H-M_alt    "P 1"
_space_group_IT_number       1

loop_
  _space_group_symop_operation_xyz
  'x, y, z'

loop_
  _atom_site_type_symbol
  _atom_site_label
  _atom_site_symmetry_multiplicity
  _atom_site_fract_x
  _atom_site_fract_y
  _atom_site_fract_z
  _atom_site_occupancy
  Bi  Bi1       1.0  0.66700  0.33400  0.00000  1.0000
  Bi  Bi2       1.0  0.33400  0.66700  0.00000  1.0000
  Er  Er1       1.0  0.23200  0.00000  0.00000  1.0000
  Er  Er2       1.0  0.00000  0.23200  0.00000  1.0000
  Er  Er3       1.0  0.76800  0.76800  0.00000  1.0000
  Er  Er4       1.0  0.60900  0.00000  0.50000  1.0000
  Er  Er5       1.0  0.39100  0.39100  0.50000  1.0000
  Er  Er6       1.0  0.00000  0.60900  0.50000  1.0000
  Mn  Mn1       1.0  0.00000  0.00000  0.50000  1.0000
