data_image0
_chemical_formula_structural       B4C20H60Li4N4O12
_chemical_formula_sum              "B4 C20 H60 Li4 N4 O12"
_cell_length_a       9.56077
_cell_length_b       9.31875
_cell_length_c       8.75385
_cell_angle_alpha    90
_cell_angle_beta     105.565
_cell_angle_gamma    90

_space_group_name_H-M_alt    "P 1"
_space_group_IT_number       1

loop_
  _space_group_symop_operation_xyz
  'x, y, z'

loop_
  _atom_site_type_symbol
  _atom_site_label
  _atom_site_symmetry_multiplicity
  _atom_site_fract_x
  _atom_site_fract_y
  _atom_site_fract_z
  _atom_site_occupancy
  B   B1        1.0  0.77100  0.84000  0.08490  1.0000
  B   B2        1.0  0.77100  0.66000  0.58500  1.0000
  B   B3        1.0  0.22900  0.16000  0.91500  1.0000
  B   B4        1.0  0.22900  0.34000  0.41500  1.0000
  C   C1        1.0  0.28500  0.88300  0.62500  1.0000
  C   C2        1.0  0.71500  0.38300  0.87500  1.0000
  C   C3        1.0  0.71500  0.11700  0.37500  1.0000
  C   C4        1.0  0.28500  0.61700  0.12500  1.0000
  C   C5        1.0  0.12300  0.79000  0.00020  1.0000
  C   C6        1.0  0.45500  0.23300  0.58800  1.0000
  C   C7        1.0  0.54500  0.73300  0.91200  1.0000
  C   C8        1.0  0.54500  0.76700  0.41200  1.0000
  C   C9        1.0  0.45500  0.26700  0.08770  1.0000
  C   C10       1.0  0.36300  0.44700  0.67000  1.0000
  C   C11       1.0  0.63700  0.94700  0.83000  1.0000
  C   C12       1.0  0.63700  0.55300  0.33000  1.0000
  C   C13       1.0  0.36300  0.05290  0.17000  1.0000
  C   C14       1.0  0.10900  0.94100  0.39500  1.0000
  C   C15       1.0  0.89100  0.44100  0.10500  1.0000
  C   C16       1.0  0.89100  0.05930  0.60500  1.0000
  C   C17       1.0  0.10900  0.55900  0.89500  1.0000
  C   C18       1.0  0.12300  0.71000  0.50000  1.0000
  C   C19       1.0  0.87700  0.21000  0.00000  1.0000
  C   C20       1.0  0.87700  0.29000  0.50000  1.0000
  H   H1        1.0  0.81600  0.09140  0.67500  1.0000
  H   H2        1.0  0.18400  0.59100  0.82500  1.0000
  H   H3        1.0  0.03320  0.02440  0.33700  1.0000
  H   H4        1.0  0.96700  0.52400  0.16300  1.0000
  H   H5        1.0  0.96700  0.97600  0.66300  1.0000
  H   H6        1.0  0.03320  0.47600  0.83700  1.0000
  H   H7        1.0  0.34300  0.92700  0.74100  1.0000
  H   H8        1.0  0.65700  0.42700  0.75900  1.0000
  H   H9        1.0  0.65700  0.07350  0.25900  1.0000
  H   H10       1.0  0.34300  0.57300  0.24100  1.0000
  H   H11       1.0  0.35900  0.85200  0.55400  1.0000
  H   H12       1.0  0.30100  0.09790  0.83600  1.0000
  H   H13       1.0  0.69900  0.59800  0.66400  1.0000
  H   H14       1.0  0.69900  0.90200  0.16400  1.0000
  H   H15       1.0  0.30100  0.40200  0.33600  1.0000
  H   H16       1.0  0.18700  0.22500  0.35100  1.0000
  H   H17       1.0  0.81300  0.72500  0.14900  1.0000
  H   H18       1.0  0.81300  0.77500  0.64900  1.0000
  H   H19       1.0  0.18700  0.27500  0.85100  1.0000
  H   H20       1.0  0.12400  0.41500  0.41600  1.0000
  H   H21       1.0  0.87600  0.91500  0.08420  1.0000
  H   H22       1.0  0.87600  0.58500  0.58400  1.0000
  H   H23       1.0  0.05530  0.87800  0.02120  1.0000
  H   H24       1.0  0.19700  0.67600  0.43000  1.0000
  H   H25       1.0  0.80300  0.17600  0.07030  1.0000
  H   H26       1.0  0.80300  0.32400  0.57000  1.0000
  H   H27       1.0  0.19700  0.82400  0.93000  1.0000
  H   H28       1.0  0.26400  0.50800  0.66600  1.0000
  H   H29       1.0  0.73600  0.00793  0.83400  1.0000
  H   H30       1.0  0.73600  0.49200  0.33400  1.0000
  H   H31       1.0  0.26400  0.99200  0.16600  1.0000
  H   H32       1.0  0.42000  0.42800  0.79500  1.0000
  H   H33       1.0  0.58000  0.92800  0.70500  1.0000
  H   H34       1.0  0.58000  0.57200  0.20500  1.0000
  H   H35       1.0  0.56700  0.48400  0.38200  1.0000
  H   H36       1.0  0.43300  0.98400  0.11800  1.0000
  H   H37       1.0  0.53000  0.29600  0.53500  1.0000
  H   H38       1.0  0.47000  0.79600  0.96500  1.0000
  H   H39       1.0  0.47000  0.70400  0.46500  1.0000
  H   H40       1.0  0.53000  0.20400  0.03520  1.0000
  H   H41       1.0  0.51400  0.20400  0.71000  1.0000
  H   H42       1.0  0.57400  0.63400  0.98100  1.0000
  H   H43       1.0  0.57400  0.86600  0.48100  1.0000
  H   H44       1.0  0.42600  0.36600  0.01870  1.0000
  H   H45       1.0  0.48600  0.70400  0.79000  1.0000
  H   H46       1.0  0.48600  0.79600  0.29000  1.0000
  H   H47       1.0  0.51400  0.29600  0.21000  1.0000
  H   H48       1.0  0.42600  0.13400  0.51900  1.0000
  H   H49       1.0  0.42000  0.07200  0.29500  1.0000
  H   H50       1.0  0.43300  0.51600  0.61800  1.0000
  H   H51       1.0  0.56700  0.01620  0.88200  1.0000
  H   H52       1.0  0.12400  0.08500  0.91600  1.0000
  H   H53       1.0  0.05530  0.62200  0.52100  1.0000
  H   H54       1.0  0.94500  0.12200  0.97900  1.0000
  H   H55       1.0  0.94500  0.37800  0.47900  1.0000
  H   H56       1.0  0.64100  0.35200  0.94600  1.0000
  H   H57       1.0  0.64100  0.14800  0.44600  1.0000
  H   H58       1.0  0.35900  0.64800  0.05390  1.0000
  H   H59       1.0  0.18400  0.90900  0.32500  1.0000
  H   H60       1.0  0.81600  0.40900  0.17500  1.0000
  Li  Li1       1.0  0.18500  0.18500  0.65000  1.0000
  Li  Li2       1.0  0.81500  0.68500  0.85000  1.0000
  Li  Li3       1.0  0.81500  0.81500  0.35000  1.0000
  Li  Li4       1.0  0.18500  0.31500  0.15000  1.0000
  N   N1        1.0  0.32400  0.31400  0.58400  1.0000
  N   N2        1.0  0.67600  0.81400  0.91600  1.0000
  N   N3        1.0  0.67600  0.68600  0.41600  1.0000
  N   N4        1.0  0.32400  0.18600  0.08380  1.0000
  O   O1        1.0  0.97200  0.18200  0.58300  1.0000
  O   O2        1.0  0.02780  0.68200  0.91700  1.0000
  O   O3        1.0  0.02780  0.81800  0.41700  1.0000
  O   O4        1.0  0.97200  0.31800  0.08310  1.0000
  O   O5        1.0  0.19100  0.99400  0.54400  1.0000
  O   O6        1.0  0.80900  0.49400  0.95600  1.0000
  O   O7        1.0  0.80900  0.00640  0.45600  1.0000
  O   O8        1.0  0.79700  0.23600  0.35000  1.0000
  O   O9        1.0  0.20300  0.73600  0.15000  1.0000
  O   O10       1.0  0.19100  0.50600  0.04440  1.0000
  O   O11       1.0  0.20300  0.76400  0.65000  1.0000
  O   O12       1.0  0.79700  0.26400  0.85000  1.0000
