data_image0
_chemical_formula_structural       Br2C16H40Li2O8
_chemical_formula_sum              "Br2 C16 H40 Li2 O8"
_cell_length_a       7.20135
_cell_length_b       7.20135
_cell_length_c       11.5156
_cell_angle_alpha    86.0739
_cell_angle_beta     93.9261
_cell_angle_gamma    118.176

_space_group_name_H-M_alt    "P 1"
_space_group_IT_number       1

loop_
  _space_group_symop_operation_xyz
  'x, y, z'

loop_
  _atom_site_type_symbol
  _atom_site_label
  _atom_site_symmetry_multiplicity
  _atom_site_fract_x
  _atom_site_fract_y
  _atom_site_fract_z
  _atom_site_occupancy
  Br  Br1       1.0  0.28600  0.28600  0.75000  1.0000
  Br  Br2       1.0  0.71400  0.71400  0.25000  1.0000
  C   C1        1.0  0.25500  0.78500  0.78800  1.0000
  C   C2        1.0  0.78500  0.25500  0.71200  1.0000
  C   C3        1.0  0.74500  0.21500  0.21200  1.0000
  C   C4        1.0  0.21500  0.74500  0.28800  1.0000
  C   C5        1.0  0.85700  0.69100  0.55300  1.0000
  C   C6        1.0  0.69100  0.85700  0.94700  1.0000
  C   C7        1.0  0.14300  0.30900  0.44700  1.0000
  C   C8        1.0  0.30900  0.14300  0.05280  1.0000
  C   C9        1.0  0.58200  0.78100  0.55900  1.0000
  C   C10       1.0  0.78100  0.58200  0.94100  1.0000
  C   C11       1.0  0.41800  0.21900  0.44100  1.0000
  C   C12       1.0  0.21900  0.41800  0.05930  1.0000
  C   C13       1.0  0.07250  0.74500  0.60400  1.0000
  C   C14       1.0  0.74500  0.07250  0.89600  1.0000
  C   C15       1.0  0.92800  0.25500  0.39600  1.0000
  C   C16       1.0  0.25500  0.92800  0.10400  1.0000
  H   H1        1.0  0.29200  0.65600  0.77400  1.0000
  H   H2        1.0  0.65600  0.29200  0.72600  1.0000
  H   H3        1.0  0.70800  0.34400  0.22600  1.0000
  H   H4        1.0  0.34400  0.70800  0.27400  1.0000
  H   H5        1.0  0.55600  0.76800  0.46400  1.0000
  H   H6        1.0  0.76800  0.55600  0.03590  1.0000
  H   H7        1.0  0.44400  0.23200  0.53600  1.0000
  H   H8        1.0  0.23200  0.44400  0.96400  1.0000
  H   H9        1.0  0.19000  0.90200  0.57100  1.0000
  H   H10       1.0  0.90200  0.19000  0.92900  1.0000
  H   H11       1.0  0.81000  0.09840  0.42900  1.0000
  H   H12       1.0  0.09840  0.81000  0.07120  1.0000
  H   H13       1.0  0.11800  0.62600  0.58300  1.0000
  H   H14       1.0  0.62600  0.11800  0.91700  1.0000
  H   H15       1.0  0.88200  0.37400  0.41700  1.0000
  H   H16       1.0  0.69500  0.85400  0.04330  1.0000
  H   H17       1.0  0.14600  0.30500  0.54300  1.0000
  H   H18       1.0  0.30500  0.14600  0.95700  1.0000
  H   H19       1.0  0.54900  0.90300  0.58800  1.0000
  H   H20       1.0  0.90300  0.54900  0.91200  1.0000
  H   H21       1.0  0.45100  0.09710  0.41200  1.0000
  H   H22       1.0  0.09710  0.45100  0.08830  1.0000
  H   H23       1.0  0.74100  0.53300  0.58500  1.0000
  H   H24       1.0  0.53300  0.74100  0.91500  1.0000
  H   H25       1.0  0.25900  0.46700  0.41500  1.0000
  H   H26       1.0  0.46700  0.25900  0.08480  1.0000
  H   H27       1.0  0.38400  0.93700  0.75900  1.0000
  H   H28       1.0  0.93700  0.38400  0.74100  1.0000
  H   H29       1.0  0.61600  0.06310  0.24100  1.0000
  H   H30       1.0  0.06310  0.61600  0.25900  1.0000
  H   H31       1.0  0.23200  0.79000  0.88000  1.0000
  H   H32       1.0  0.79000  0.23200  0.62000  1.0000
  H   H33       1.0  0.76800  0.21000  0.12000  1.0000
  H   H34       1.0  0.21000  0.76800  0.38000  1.0000
  H   H35       1.0  0.37100  0.52100  0.10400  1.0000
  H   H36       1.0  0.47900  0.62900  0.60400  1.0000
  H   H37       1.0  0.62900  0.47900  0.89600  1.0000
  H   H38       1.0  0.52100  0.37100  0.39600  1.0000
  H   H39       1.0  0.37400  0.88200  0.08280  1.0000
  H   H40       1.0  0.85400  0.69500  0.45700  1.0000
  Li  Li1       1.0  0.94000  0.94000  0.75000  1.0000
  Li  Li2       1.0  0.06040  0.06040  0.25000  1.0000
  O   O1        1.0  0.79900  0.84200  0.59000  1.0000
  O   O2        1.0  0.06190  0.74800  0.72700  1.0000
  O   O3        1.0  0.74800  0.06190  0.77300  1.0000
  O   O4        1.0  0.93800  0.25200  0.27300  1.0000
  O   O5        1.0  0.25200  0.93800  0.22700  1.0000
  O   O6        1.0  0.84200  0.79900  0.91000  1.0000
  O   O7        1.0  0.20100  0.15800  0.41000  1.0000
  O   O8        1.0  0.15800  0.20100  0.09030  1.0000
