data_image0
_chemical_formula_structural       C48H24
_chemical_formula_sum              "C48 H24"
_cell_length_a       15.393
_cell_length_b       4.52351
_cell_length_c       9.72598
_cell_angle_alpha    90
_cell_angle_beta     110.279
_cell_angle_gamma    90

_space_group_name_H-M_alt    "P 1"
_space_group_IT_number       1

loop_
  _space_group_symop_operation_xyz
  'x, y, z'

loop_
  _atom_site_type_symbol
  _atom_site_label
  _atom_site_symmetry_multiplicity
  _atom_site_fract_x
  _atom_site_fract_y
  _atom_site_fract_z
  _atom_site_occupancy
  C   C1        1.0  0.06140  0.21400  0.97800  1.0000
  C   C2        1.0  0.43900  0.71400  0.02160  1.0000
  C   C3        1.0  0.69800  0.02370  0.22100  1.0000
  C   C4        1.0  0.06900  0.13000  0.12300  1.0000
  C   C5        1.0  0.43100  0.63000  0.87700  1.0000
  C   C6        1.0  0.93100  0.87000  0.87700  1.0000
  C   C7        1.0  0.56900  0.37000  0.12300  1.0000
  C   C8        1.0  0.94900  0.62700  0.30700  1.0000
  C   C9        1.0  0.55100  0.12700  0.69300  1.0000
  C   C10       1.0  0.05080  0.37300  0.69300  1.0000
  C   C11       1.0  0.44900  0.87300  0.30700  1.0000
  C   C12       1.0  0.88500  0.49400  0.18800  1.0000
  C   C13       1.0  0.61500  0.99400  0.81200  1.0000
  C   C14       1.0  0.11500  0.50600  0.81200  1.0000
  C   C15       1.0  0.62200  0.06790  0.95700  1.0000
  C   C16       1.0  0.12200  0.43200  0.95700  1.0000
  C   C17       1.0  0.37800  0.93200  0.04300  1.0000
  C   C18       1.0  0.93900  0.78600  0.02160  1.0000
  C   C19       1.0  0.56100  0.28600  0.97800  1.0000
  C   C20       1.0  0.38500  0.00619  0.18800  1.0000
  C   C21       1.0  0.87800  0.56800  0.04300  1.0000
  C   C22       1.0  0.00716  0.91700  0.14500  1.0000
  C   C23       1.0  0.49300  0.41700  0.85500  1.0000
  C   C24       1.0  0.99300  0.08300  0.85500  1.0000
  C   C25       1.0  0.50700  0.58300  0.14500  1.0000
  C   C26       1.0  0.18900  0.56300  0.08150  1.0000
  C   C27       1.0  0.31100  0.06280  0.91800  1.0000
  C   C28       1.0  0.19800  0.47600  0.22100  1.0000
  C   C29       1.0  0.30200  0.97600  0.77900  1.0000
  C   C30       1.0  0.80200  0.52400  0.77900  1.0000
  C   C31       1.0  0.81100  0.43700  0.91800  1.0000
  C   C32       1.0  0.68900  0.93700  0.08150  1.0000
  C   C33       1.0  0.13800  0.25900  0.24600  1.0000
  C   C34       1.0  0.36200  0.75900  0.75400  1.0000
  C   C35       1.0  0.86200  0.74100  0.75400  1.0000
  C   C36       1.0  0.63800  0.24100  0.24600  1.0000
  C   C37       1.0  0.14400  0.16900  0.38900  1.0000
  C   C38       1.0  0.35600  0.66900  0.61100  1.0000
  C   C39       1.0  0.85600  0.83100  0.61100  1.0000
  C   C40       1.0  0.64400  0.33100  0.38900  1.0000
  C   C41       1.0  0.08420  0.96500  0.41000  1.0000
  C   C42       1.0  0.41600  0.46500  0.59000  1.0000
  C   C43       1.0  0.91600  0.03500  0.59000  1.0000
  C   C44       1.0  0.58400  0.53500  0.41000  1.0000
  C   C45       1.0  0.01360  0.83600  0.28900  1.0000
  C   C46       1.0  0.48600  0.33600  0.71100  1.0000
  C   C47       1.0  0.98600  0.16400  0.71100  1.0000
  C   C48       1.0  0.51400  0.66400  0.28900  1.0000
  H   H1        1.0  0.59000  0.59900  0.52100  1.0000
  H   H2        1.0  0.19800  0.27200  0.48200  1.0000
  H   H3        1.0  0.30200  0.77200  0.51800  1.0000
  H   H4        1.0  0.80200  0.72800  0.51800  1.0000
  H   H5        1.0  0.69800  0.22800  0.48200  1.0000
  H   H6        1.0  0.25000  0.57900  0.31500  1.0000
  H   H7        1.0  0.25000  0.07930  0.68500  1.0000
  H   H8        1.0  0.75000  0.42100  0.68500  1.0000
  H   H9        1.0  0.75000  0.92100  0.31500  1.0000
  H   H10       1.0  0.83700  0.33000  0.20400  1.0000
  H   H11       1.0  0.66300  0.83000  0.79600  1.0000
  H   H12       1.0  0.16300  0.67000  0.79600  1.0000
  H   H13       1.0  0.33700  0.17000  0.20400  1.0000
  H   H14       1.0  0.23400  0.73300  0.06470  1.0000
  H   H15       1.0  0.26600  0.23300  0.93500  1.0000
  H   H16       1.0  0.76600  0.26700  0.93500  1.0000
  H   H17       1.0  0.73400  0.76700  0.06470  1.0000
  H   H18       1.0  0.95100  0.57400  0.41700  1.0000
  H   H19       1.0  0.54900  0.07430  0.58300  1.0000
  H   H20       1.0  0.04880  0.42600  0.58300  1.0000
  H   H21       1.0  0.45100  0.92600  0.41700  1.0000
  H   H22       1.0  0.08960  0.90100  0.52100  1.0000
  H   H23       1.0  0.41000  0.40100  0.47900  1.0000
  H   H24       1.0  0.91000  0.09910  0.47900  1.0000
