data_image0
_chemical_formula_structural       B4C4H32N4
_chemical_formula_sum              "B4 C4 H32 N4"
_cell_length_a       10.4613
_cell_length_b       6.13943
_cell_length_c       4.6807
_cell_angle_alpha    90
_cell_angle_beta     90
_cell_angle_gamma    90

_space_group_name_H-M_alt    "P 1"
_space_group_IT_number       1

loop_
  _space_group_symop_operation_xyz
  'x, y, z'

loop_
  _atom_site_type_symbol
  _atom_site_label
  _atom_site_symmetry_multiplicity
  _atom_site_fract_x
  _atom_site_fract_y
  _atom_site_fract_z
  _atom_site_occupancy
  B   B1        1.0  0.96800  0.25000  0.69900  1.0000
  B   B2        1.0  0.53200  0.75000  0.19900  1.0000
  B   B3        1.0  0.46800  0.25000  0.80100  1.0000
  B   B4        1.0  0.03170  0.75000  0.30100  1.0000
  C   C1        1.0  0.78100  0.25000  0.34300  1.0000
  C   C2        1.0  0.71900  0.75000  0.84300  1.0000
  C   C3        1.0  0.28100  0.25000  0.15700  1.0000
  C   C4        1.0  0.21900  0.75000  0.65700  1.0000
  H   H1        1.0  0.75400  0.25000  0.11600  1.0000
  H   H2        1.0  0.74600  0.75000  0.61600  1.0000
  H   H3        1.0  0.25400  0.25000  0.38400  1.0000
  H   H4        1.0  0.24600  0.75000  0.88400  1.0000
  H   H5        1.0  0.25900  0.60500  0.55300  1.0000
  H   H6        1.0  0.24100  0.39500  0.05350  1.0000
  H   H7        1.0  0.75900  0.89500  0.94700  1.0000
  H   H8        1.0  0.74100  0.10500  0.44700  1.0000
  H   H9        1.0  0.74100  0.39500  0.44700  1.0000
  H   H10       1.0  0.75900  0.60500  0.94700  1.0000
  H   H11       1.0  0.24100  0.10500  0.05350  1.0000
  H   H12       1.0  0.25900  0.89500  0.55300  1.0000
  H   H13       1.0  0.04160  0.61600  0.72800  1.0000
  H   H14       1.0  0.45800  0.38400  0.22800  1.0000
  H   H15       1.0  0.54200  0.88400  0.77200  1.0000
  H   H16       1.0  0.95800  0.11600  0.27200  1.0000
  H   H17       1.0  0.95800  0.38400  0.27200  1.0000
  H   H18       1.0  0.54200  0.61600  0.77200  1.0000
  H   H19       1.0  0.45800  0.11600  0.22800  1.0000
  H   H20       1.0  0.04160  0.88400  0.72800  1.0000
  H   H21       1.0  0.08480  0.25000  0.70100  1.0000
  H   H22       1.0  0.41500  0.75000  0.20100  1.0000
  H   H23       1.0  0.58500  0.25000  0.79900  1.0000
  H   H24       1.0  0.91500  0.75000  0.29900  1.0000
  H   H25       1.0  0.07530  0.58900  0.18500  1.0000
  H   H26       1.0  0.42500  0.41100  0.68500  1.0000
  H   H27       1.0  0.57500  0.91100  0.31500  1.0000
  H   H28       1.0  0.92500  0.08870  0.81500  1.0000
  H   H29       1.0  0.92500  0.41100  0.81500  1.0000
  H   H30       1.0  0.57500  0.58900  0.31500  1.0000
  H   H31       1.0  0.42500  0.08870  0.68500  1.0000
  H   H32       1.0  0.07530  0.91100  0.18500  1.0000
  N   N1        1.0  0.92100  0.25000  0.37700  1.0000
  N   N2        1.0  0.57900  0.75000  0.87700  1.0000
  N   N3        1.0  0.42100  0.25000  0.12300  1.0000
  N   N4        1.0  0.07890  0.75000  0.62300  1.0000
