data_image0
_chemical_formula_structural       C80H104N16
_chemical_formula_sum              "C80 H104 N16"
_cell_length_a       10.6572
_cell_length_b       12.0369
_cell_length_c       11.4637
_cell_angle_alpha    90
_cell_angle_beta     102.655
_cell_angle_gamma    90

_space_group_name_H-M_alt    "P 1"
_space_group_IT_number       1

loop_
  _space_group_symop_operation_xyz
  'x, y, z'

loop_
  _atom_site_type_symbol
  _atom_site_label
  _atom_site_symmetry_multiplicity
  _atom_site_fract_x
  _atom_site_fract_y
  _atom_site_fract_z
  _atom_site_occupancy
  C   C1        1.0  0.72400  0.50100  0.28800  1.0000
  C   C2        1.0  0.27600  0.00071  0.21200  1.0000
  C   C3        1.0  0.27600  0.49900  0.71200  1.0000
  C   C4        1.0  0.72400  0.99900  0.78800  1.0000
  C   C5        1.0  0.39800  0.27000  0.06220  1.0000
  C   C6        1.0  0.60200  0.77000  0.43800  1.0000
  C   C7        1.0  0.60200  0.73000  0.93800  1.0000
  C   C8        1.0  0.39800  0.23000  0.56200  1.0000
  C   C9        1.0  0.30600  0.32200  0.97500  1.0000
  C   C10       1.0  0.69400  0.82200  0.52500  1.0000
  C   C11       1.0  0.69400  0.67800  0.02510  1.0000
  C   C12       1.0  0.30600  0.17800  0.47500  1.0000
  C   C13       1.0  0.19400  0.36700  0.99900  1.0000
  C   C14       1.0  0.80600  0.86700  0.50100  1.0000
  C   C15       1.0  0.80600  0.63300  0.00081  1.0000
  C   C16       1.0  0.19400  0.13300  0.49900  1.0000
  C   C17       1.0  0.17600  0.35600  0.11500  1.0000
  C   C18       1.0  0.82400  0.85600  0.38500  1.0000
  C   C19       1.0  0.82400  0.64400  0.88500  1.0000
  C   C20       1.0  0.17600  0.14400  0.61500  1.0000
  C   C21       1.0  0.65800  0.31000  0.25100  1.0000
  C   C22       1.0  0.34200  0.81000  0.24900  1.0000
  C   C23       1.0  0.34200  0.69000  0.74900  1.0000
  C   C24       1.0  0.65800  0.19000  0.75100  1.0000
  C   C25       1.0  0.58700  0.21600  0.29600  1.0000
  C   C26       1.0  0.41300  0.71600  0.20400  1.0000
  C   C27       1.0  0.41300  0.78400  0.70400  1.0000
  C   C28       1.0  0.58700  0.28400  0.79600  1.0000
  C   C29       1.0  0.38000  0.25900  0.17900  1.0000
  C   C30       1.0  0.62000  0.75900  0.32100  1.0000
  C   C31       1.0  0.62000  0.74100  0.82100  1.0000
  C   C32       1.0  0.38000  0.24100  0.67900  1.0000
  C   C33       1.0  0.26500  0.30100  0.20300  1.0000
  C   C34       1.0  0.73500  0.80100  0.29700  1.0000
  C   C35       1.0  0.73500  0.69900  0.79700  1.0000
  C   C36       1.0  0.26500  0.19900  0.70300  1.0000
  C   C37       1.0  0.09820  0.42500  0.90500  1.0000
  C   C38       1.0  0.90200  0.92500  0.59500  1.0000
  C   C39       1.0  0.90200  0.57500  0.09520  1.0000
  C   C40       1.0  0.09820  0.07500  0.40500  1.0000
  C   C41       1.0  0.75600  0.00184  0.10600  1.0000
  C   C42       1.0  0.24400  0.50200  0.39400  1.0000
  C   C43       1.0  0.24400  0.99800  0.89400  1.0000
  C   C44       1.0  0.75600  0.49800  0.60600  1.0000
  C   C45       1.0  0.70100  0.10400  0.12200  1.0000
  C   C46       1.0  0.29900  0.60400  0.37800  1.0000
  C   C47       1.0  0.29900  0.89600  0.87800  1.0000
  C   C48       1.0  0.70100  0.39600  0.62200  1.0000
  C   C49       1.0  0.95000  0.87900  0.11400  1.0000
  C   C50       1.0  0.05030  0.37900  0.38600  1.0000
  C   C51       1.0  0.05030  0.12100  0.88600  1.0000
  C   C52       1.0  0.95000  0.62100  0.61400  1.0000
  C   C53       1.0  0.79900  0.14800  0.40600  1.0000
  C   C54       1.0  0.20100  0.64800  0.09430  1.0000
  C   C55       1.0  0.20100  0.85200  0.59400  1.0000
  C   C56       1.0  0.79900  0.35200  0.90600  1.0000
  C   C57       1.0  0.77700  0.20000  0.14500  1.0000
  C   C58       1.0  0.22300  0.70000  0.35500  1.0000
  C   C59       1.0  0.22300  0.80000  0.85500  1.0000
  C   C60       1.0  0.77700  0.30000  0.64500  1.0000
  C   C61       1.0  0.90600  0.19100  0.13500  1.0000
  C   C62       1.0  0.09450  0.69100  0.36500  1.0000
  C   C63       1.0  0.09450  0.80900  0.86500  1.0000
  C   C64       1.0  0.90600  0.30900  0.63500  1.0000
  C   C65       1.0  0.96000  0.08860  0.12000  1.0000
  C   C66       1.0  0.04020  0.58900  0.38000  1.0000
  C   C67       1.0  0.04020  0.91100  0.88000  1.0000
  C   C68       1.0  0.96000  0.41100  0.62000  1.0000
  C   C69       1.0  0.88800  0.99100  0.11200  1.0000
  C   C70       1.0  0.11200  0.49100  0.38800  1.0000
  C   C71       1.0  0.11200  0.00937  0.88800  1.0000
  C   C72       1.0  0.88800  0.50900  0.61200  1.0000
  C   C73       1.0  0.59900  0.06430  0.43600  1.0000
  C   C74       1.0  0.40100  0.56400  0.06420  1.0000
  C   C75       1.0  0.40100  0.93600  0.56400  1.0000
  C   C76       1.0  0.59900  0.43600  0.93600  1.0000
  C   C77       1.0  0.53400  0.43400  0.35600  1.0000
  C   C78       1.0  0.46600  0.93400  0.14400  1.0000
  C   C79       1.0  0.46600  0.56600  0.64400  1.0000
  C   C80       1.0  0.53400  0.06570  0.85600  1.0000
  H   H1        1.0  0.01320  0.44800  0.93800  1.0000
  H   H2        1.0  0.98700  0.94800  0.56200  1.0000
  H   H3        1.0  0.98700  0.55200  0.06210  1.0000
  H   H4        1.0  0.01320  0.05170  0.43800  1.0000
  H   H5        1.0  0.24700  0.29300  0.29200  1.0000
  H   H6        1.0  0.75300  0.79300  0.20800  1.0000
  H   H7        1.0  0.75300  0.70700  0.70800  1.0000
  H   H8        1.0  0.24700  0.20700  0.79200  1.0000
  H   H9        1.0  0.06600  0.37200  0.82600  1.0000
  H   H10       1.0  0.93400  0.87200  0.67400  1.0000
  H   H11       1.0  0.93400  0.62800  0.17400  1.0000
  H   H12       1.0  0.06600  0.12800  0.32600  1.0000
  H   H13       1.0  0.13800  0.50100  0.87400  1.0000
  H   H14       1.0  0.86200  0.00116  0.62600  1.0000
  H   H15       1.0  0.86200  0.49900  0.12600  1.0000
  H   H16       1.0  0.13800  0.99900  0.37400  1.0000
  H   H17       1.0  0.48700  0.23900  0.04010  1.0000
  H   H18       1.0  0.51300  0.73900  0.46000  1.0000
  H   H19       1.0  0.51300  0.76100  0.96000  1.0000
  H   H20       1.0  0.48700  0.26100  0.54000  1.0000
  H   H21       1.0  0.09110  0.39300  0.13900  1.0000
  H   H22       1.0  0.90900  0.89300  0.36100  1.0000
  H   H23       1.0  0.90900  0.60700  0.86100  1.0000
  H   H24       1.0  0.09110  0.10700  0.63900  1.0000
  H   H25       1.0  0.32700  0.32900  0.88600  1.0000
  H   H26       1.0  0.67300  0.82900  0.61400  1.0000
  H   H27       1.0  0.67300  0.67100  0.11400  1.0000
  H   H28       1.0  0.32700  0.17100  0.38600  1.0000
  H   H29       1.0  0.06120  0.08510  0.11800  1.0000
  H   H30       1.0  0.93900  0.58500  0.38200  1.0000
  H   H31       1.0  0.93900  0.91500  0.88200  1.0000
  H   H32       1.0  0.06120  0.41500  0.61800  1.0000
  H   H33       1.0  0.96500  0.26600  0.14300  1.0000
  H   H34       1.0  0.03550  0.76600  0.35700  1.0000
  H   H35       1.0  0.03550  0.73400  0.85700  1.0000
  H   H36       1.0  0.96500  0.23400  0.64300  1.0000
  H   H37       1.0  0.83000  0.08370  0.35000  1.0000
  H   H38       1.0  0.17000  0.58400  0.15000  1.0000
  H   H39       1.0  0.17000  0.91600  0.65000  1.0000
  H   H40       1.0  0.83000  0.41600  0.85000  1.0000
  H   H41       1.0  0.83500  0.12800  0.50000  1.0000
  H   H42       1.0  0.16500  0.62800  0.00000  1.0000
  H   H43       1.0  0.16500  0.87200  0.50000  1.0000
  H   H44       1.0  0.83500  0.37200  0.00017  1.0000
  H   H45       1.0  0.83900  0.22800  0.38700  1.0000
  H   H46       1.0  0.16100  0.72800  0.11300  1.0000
  H   H47       1.0  0.16100  0.77200  0.61300  1.0000
  H   H48       1.0  0.83900  0.27200  0.88700  1.0000
  H   H49       1.0  0.96400  0.84200  0.20400  1.0000
  H   H50       1.0  0.03580  0.34200  0.29600  1.0000
  H   H51       1.0  0.03580  0.15800  0.79600  1.0000
  H   H52       1.0  0.96400  0.65800  0.70400  1.0000
  H   H53       1.0  0.04440  0.88300  0.09180  1.0000
  H   H54       1.0  0.95600  0.38300  0.40800  1.0000
  H   H55       1.0  0.95600  0.11700  0.90800  1.0000
  H   H56       1.0  0.04440  0.61700  0.59200  1.0000
  H   H57       1.0  0.89100  0.82000  0.05190  1.0000
  H   H58       1.0  0.10900  0.32000  0.44800  1.0000
  H   H59       1.0  0.10900  0.18000  0.94800  1.0000
  H   H60       1.0  0.89100  0.68000  0.55200  1.0000
  H   H61       1.0  0.59900  0.10900  0.12000  1.0000
  H   H62       1.0  0.40100  0.60900  0.38000  1.0000
  H   H63       1.0  0.40100  0.89100  0.88000  1.0000
  H   H64       1.0  0.59900  0.39100  0.62000  1.0000
  H   H65       1.0  0.69600  0.92800  0.09060  1.0000
  H   H66       1.0  0.30400  0.42800  0.40900  1.0000
  H   H67       1.0  0.30400  0.07220  0.90900  1.0000
  H   H68       1.0  0.69600  0.57200  0.59100  1.0000
  H   H69       1.0  0.59400  0.98600  0.38500  1.0000
  H   H70       1.0  0.40600  0.48600  0.11500  1.0000
  H   H71       1.0  0.40600  0.01350  0.61500  1.0000
  H   H72       1.0  0.59400  0.51400  0.88500  1.0000
  H   H73       1.0  0.50200  0.08960  0.44000  1.0000
  H   H74       1.0  0.49800  0.59000  0.06030  1.0000
  H   H75       1.0  0.49800  0.91000  0.56000  1.0000
  H   H76       1.0  0.50200  0.41000  0.94000  1.0000
  H   H77       1.0  0.56300  0.50200  0.42000  1.0000
  H   H78       1.0  0.43700  0.00216  0.07990  1.0000
  H   H79       1.0  0.43700  0.49800  0.58000  1.0000
  H   H80       1.0  0.44900  0.46100  0.28900  1.0000
  H   H81       1.0  0.56300  0.99800  0.92000  1.0000
  H   H82       1.0  0.55100  0.96100  0.21100  1.0000
  H   H83       1.0  0.55100  0.53900  0.71100  1.0000
  H   H84       1.0  0.44900  0.03940  0.78900  1.0000
  H   H85       1.0  0.65500  0.05050  0.52700  1.0000
  H   H86       1.0  0.34500  0.55000  0.97300  1.0000
  H   H87       1.0  0.34500  0.95000  0.47300  1.0000
  H   H88       1.0  0.65500  0.45000  0.02680  1.0000
  H   H89       1.0  0.50700  0.36200  0.40400  1.0000
  H   H90       1.0  0.49300  0.86200  0.09620  1.0000
  H   H91       1.0  0.49300  0.63800  0.59600  1.0000
  H   H92       1.0  0.50700  0.13800  0.90400  1.0000
  H   H93       1.0  0.73200  0.55600  0.36600  1.0000
  H   H94       1.0  0.26800  0.05630  0.13400  1.0000
  H   H95       1.0  0.26800  0.44400  0.63400  1.0000
  H   H96       1.0  0.73200  0.94400  0.86600  1.0000
  H   H97       1.0  0.81800  0.46700  0.28400  1.0000
  H   H98       1.0  0.18200  0.96700  0.21600  1.0000
  H   H99       1.0  0.18200  0.53300  0.71600  1.0000
  H   H100      1.0  0.81800  0.03270  0.78400  1.0000
  H   H101      1.0  0.68500  0.54900  0.20700  1.0000
  H   H102      1.0  0.31500  0.04880  0.29300  1.0000
  H   H103      1.0  0.31500  0.45100  0.79300  1.0000
  H   H104      1.0  0.68500  0.95100  0.70700  1.0000
  N   N1        1.0  0.64100  0.40900  0.30300  1.0000
  N   N2        1.0  0.35900  0.90900  0.19700  1.0000
  N   N3        1.0  0.35900  0.59100  0.69700  1.0000
  N   N4        1.0  0.64100  0.09080  0.80300  1.0000
  N   N5        1.0  0.66000  0.15200  0.38300  1.0000
  N   N6        1.0  0.34000  0.65200  0.11700  1.0000
  N   N7        1.0  0.34000  0.84800  0.61700  1.0000
  N   N8        1.0  0.66000  0.34800  0.88300  1.0000
  N   N9        1.0  0.73800  0.30300  0.18000  1.0000
  N   N10       1.0  0.26200  0.80300  0.32000  1.0000
  N   N11       1.0  0.26200  0.69700  0.82000  1.0000
  N   N12       1.0  0.73800  0.19700  0.68000  1.0000
  N   N13       1.0  0.46400  0.20000  0.26800  1.0000
  N   N14       1.0  0.53600  0.70000  0.23200  1.0000
  N   N15       1.0  0.53600  0.80000  0.73200  1.0000
  N   N16       1.0  0.46400  0.30000  0.76800  1.0000
