data_image0
_chemical_formula_structural       C22H34N2Si2
_chemical_formula_sum              "C22 H34 N2 Si2"
_cell_length_a       7.04532
_cell_length_b       7.85183
_cell_length_c       9.50952
_cell_angle_alpha    104.514
_cell_angle_beta     94.8789
_cell_angle_gamma    111.928

_space_group_name_H-M_alt    "P 1"
_space_group_IT_number       1

loop_
  _space_group_symop_operation_xyz
  'x, y, z'

loop_
  _atom_site_type_symbol
  _atom_site_label
  _atom_site_symmetry_multiplicity
  _atom_site_fract_x
  _atom_site_fract_y
  _atom_site_fract_z
  _atom_site_occupancy
  C   C1        1.0  0.67400  0.44100  0.15700  1.0000
  C   C2        1.0  0.32600  0.55900  0.84300  1.0000
  C   C3        1.0  0.75400  0.36400  0.03990  1.0000
  C   C4        1.0  0.24600  0.63600  0.96000  1.0000
  C   C5        1.0  0.77900  0.19200  0.02410  1.0000
  C   C6        1.0  0.22100  0.80800  0.97600  1.0000
  C   C7        1.0  0.71400  0.09550  0.12800  1.0000
  C   C8        1.0  0.28600  0.90500  0.87200  1.0000
  C   C9        1.0  0.82700  0.47300  0.67200  1.0000
  C   C10       1.0  0.17300  0.52700  0.32800  1.0000
  C   C11       1.0  0.88500  0.81200  0.56100  1.0000
  C   C12       1.0  0.11500  0.18800  0.43900  1.0000
  C   C13       1.0  0.61600  0.34500  0.26400  1.0000
  C   C14       1.0  0.38400  0.65500  0.73600  1.0000
  C   C15       1.0  0.63500  0.16800  0.24700  1.0000
  C   C16       1.0  0.36500  0.83200  0.75300  1.0000
  C   C17       1.0  0.65500  0.62700  0.17000  1.0000
  C   C18       1.0  0.34500  0.37300  0.83000  1.0000
  C   C19       1.0  0.87400  0.11300  0.90300  1.0000
  C   C20       1.0  0.12600  0.88700  0.09690  1.0000
  C   C21       1.0  0.57000  0.05910  0.35500  1.0000
  C   C22       1.0  0.43000  0.94100  0.64500  1.0000
  H   H1        1.0  0.99100  0.78700  0.48800  1.0000
  H   H2        1.0  0.00904  0.21300  0.51200  1.0000
  H   H3        1.0  0.98100  0.90100  0.67100  1.0000
  H   H4        1.0  0.01850  0.09850  0.32900  1.0000
  H   H5        1.0  0.80200  0.44200  0.96000  1.0000
  H   H6        1.0  0.19800  0.55800  0.04030  1.0000
  H   H7        1.0  0.81000  0.89300  0.51700  1.0000
  H   H8        1.0  0.19000  0.10700  0.48300  1.0000
  H   H9        1.0  0.72500  0.33200  0.68100  1.0000
  H   H10       1.0  0.27500  0.66800  0.31900  1.0000
  H   H11       1.0  0.90300  0.57300  0.78400  1.0000
  H   H12       1.0  0.09750  0.42700  0.21600  1.0000
  H   H13       1.0  0.95500  0.45600  0.61900  1.0000
  H   H14       1.0  0.04550  0.54400  0.38100  1.0000
  H   H15       1.0  0.66100  0.65900  0.06440  1.0000
  H   H16       1.0  0.33900  0.34100  0.93600  1.0000
  H   H17       1.0  0.72200  0.95600  0.11400  1.0000
  H   H18       1.0  0.27800  0.04380  0.88600  1.0000
  H   H19       1.0  0.66500  0.14100  0.46600  1.0000
  H   H20       1.0  0.33500  0.85900  0.53400  1.0000
  H   H21       1.0  0.58400  0.92100  0.32100  1.0000
  H   H22       1.0  0.41600  0.07870  0.67900  1.0000
  H   H23       1.0  0.40700  0.03030  0.36500  1.0000
  H   H24       1.0  0.59300  0.97000  0.63500  1.0000
  H   H25       1.0  0.88600  0.18500  0.81700  1.0000
  H   H26       1.0  0.11400  0.81500  0.18300  1.0000
  H   H27       1.0  0.78200  0.95700  0.85100  1.0000
  H   H28       1.0  0.21800  0.04270  0.14900  1.0000
  H   H29       1.0  0.03200  0.13200  0.94700  1.0000
  H   H30       1.0  0.96800  0.86800  0.05270  1.0000
  H   H31       1.0  0.78100  0.74800  0.25500  1.0000
  H   H32       1.0  0.21900  0.25200  0.74500  1.0000
  H   H33       1.0  0.50700  0.62300  0.20100  1.0000
  H   H34       1.0  0.49300  0.37700  0.79900  1.0000
  N   N1        1.0  0.54600  0.42500  0.38800  1.0000
  N   N2        1.0  0.45400  0.57500  0.61200  1.0000
  Si  Si1       1.0  0.68900  0.57600  0.56600  1.0000
  Si  Si2       1.0  0.31100  0.42400  0.43400  1.0000
