data_image0
_chemical_formula_structural       C40H100N4Si8
_chemical_formula_sum              "C40 H100 N4 Si8"
_cell_length_a       8.36766
_cell_length_b       11.9985
_cell_length_c       12.747
_cell_angle_alpha    90
_cell_angle_beta     110.371
_cell_angle_gamma    90

_space_group_name_H-M_alt    "P 1"
_space_group_IT_number       1

loop_
  _space_group_symop_operation_xyz
  'x, y, z'

loop_
  _atom_site_type_symbol
  _atom_site_label
  _atom_site_symmetry_multiplicity
  _atom_site_fract_x
  _atom_site_fract_y
  _atom_site_fract_z
  _atom_site_occupancy
  C   C1        1.0  0.24200  0.57300  0.76400  1.0000
  C   C2        1.0  0.25800  0.07330  0.73600  1.0000
  C   C3        1.0  0.75800  0.42700  0.23600  1.0000
  C   C4        1.0  0.74200  0.92700  0.26400  1.0000
  C   C5        1.0  0.41400  0.74500  0.83500  1.0000
  C   C6        1.0  0.08600  0.24500  0.66500  1.0000
  C   C7        1.0  0.58600  0.25500  0.16500  1.0000
  C   C8        1.0  0.91400  0.75500  0.33500  1.0000
  C   C9        1.0  0.27300  0.71700  0.63100  1.0000
  C   C10       1.0  0.22700  0.21700  0.86900  1.0000
  C   C11       1.0  0.72700  0.28300  0.36900  1.0000
  C   C12       1.0  0.77300  0.78300  0.13100  1.0000
  C   C13       1.0  0.68500  0.48500  0.84000  1.0000
  C   C14       1.0  0.81500  0.98500  0.66000  1.0000
  C   C15       1.0  0.31500  0.51500  0.16000  1.0000
  C   C16       1.0  0.18500  0.01450  0.34000  1.0000
  C   C17       1.0  0.52500  0.72100  0.44400  1.0000
  C   C18       1.0  0.97500  0.22100  0.05620  1.0000
  C   C19       1.0  0.47500  0.27900  0.55600  1.0000
  C   C20       1.0  0.02470  0.77900  0.94400  1.0000
  C   C21       1.0  0.83300  0.56800  0.53900  1.0000
  C   C22       1.0  0.66700  0.06760  0.96100  1.0000
  C   C23       1.0  0.16700  0.43200  0.46100  1.0000
  C   C24       1.0  0.33300  0.93200  0.03920  1.0000
  C   C25       1.0  0.36400  0.65700  0.74200  1.0000
  C   C26       1.0  0.13600  0.15700  0.75800  1.0000
  C   C27       1.0  0.63600  0.34300  0.25800  1.0000
  C   C28       1.0  0.86400  0.84300  0.24200  1.0000
  C   C29       1.0  0.84200  0.45400  0.81100  1.0000
  C   C30       1.0  0.65800  0.95400  0.68900  1.0000
  C   C31       1.0  0.15800  0.54600  0.18900  1.0000
  C   C32       1.0  0.34200  0.04650  0.31100  1.0000
  C   C33       1.0  0.74200  0.53900  0.95600  1.0000
  C   C34       1.0  0.75800  0.03890  0.54400  1.0000
  C   C35       1.0  0.25800  0.46100  0.04390  1.0000
  C   C36       1.0  0.24200  0.96100  0.45600  1.0000
  C   C37       1.0  0.58200  0.38100  0.84200  1.0000
  C   C38       1.0  0.91800  0.88100  0.65800  1.0000
  C   C39       1.0  0.41800  0.61900  0.15800  1.0000
  C   C40       1.0  0.08190  0.11900  0.34200  1.0000
  H   H1        1.0  0.87800  0.48500  0.57400  1.0000
  H   H2        1.0  0.62200  0.98500  0.92600  1.0000
  H   H3        1.0  0.12200  0.51500  0.42600  1.0000
  H   H4        1.0  0.37800  0.01490  0.07430  1.0000
  H   H5        1.0  0.58500  0.75600  0.38700  1.0000
  H   H6        1.0  0.41500  0.24400  0.61300  1.0000
  H   H7        1.0  0.91500  0.25600  0.11300  1.0000
  H   H8        1.0  0.08530  0.74400  0.88700  1.0000
  H   H9        1.0  0.88900  0.63000  0.60500  1.0000
  H   H10       1.0  0.11100  0.37000  0.39500  1.0000
  H   H11       1.0  0.61100  0.13000  0.89500  1.0000
  H   H12       1.0  0.38900  0.87000  0.10500  1.0000
  H   H13       1.0  0.88300  0.58400  0.47200  1.0000
  H   H14       1.0  0.61700  0.08440  0.02820  1.0000
  H   H15       1.0  0.11700  0.41600  0.52800  1.0000
  H   H16       1.0  0.38300  0.91600  0.97200  1.0000
  H   H17       1.0  0.68400  0.68300  0.73400  1.0000
  H   H18       1.0  0.81600  0.18300  0.76600  1.0000
  H   H19       1.0  0.31600  0.31700  0.26600  1.0000
  H   H20       1.0  0.18400  0.81700  0.23400  1.0000
  H   H21       1.0  0.55900  0.77600  0.51800  1.0000
  H   H22       1.0  0.94100  0.27600  0.98200  1.0000
  H   H23       1.0  0.44100  0.22400  0.48200  1.0000
  H   H24       1.0  0.05940  0.72400  0.01760  1.0000
  H   H25       1.0  0.11400  0.22500  0.09810  1.0000
  H   H26       1.0  0.38600  0.72500  0.40200  1.0000
  H   H27       1.0  0.61400  0.27500  0.59800  1.0000
  H   H28       1.0  0.88600  0.77500  0.90200  1.0000
  H   H29       1.0  0.20400  0.50700  0.70000  1.0000
  H   H30       1.0  0.79600  0.49300  0.30000  1.0000
  H   H31       1.0  0.29600  0.00704  0.80000  1.0000
  H   H32       1.0  0.70400  0.99300  0.20000  1.0000
  H   H33       1.0  0.12400  0.61600  0.76200  1.0000
  H   H34       1.0  0.37600  0.11600  0.73800  1.0000
  H   H35       1.0  0.87600  0.38400  0.23800  1.0000
  H   H36       1.0  0.62400  0.88400  0.26200  1.0000
  H   H37       1.0  0.92400  0.39600  0.87400  1.0000
  H   H38       1.0  0.57600  0.89600  0.62600  1.0000
  H   H39       1.0  0.07570  0.60400  0.12600  1.0000
  H   H40       1.0  0.42400  0.10400  0.37400  1.0000
  H   H41       1.0  0.23900  0.66000  0.55900  1.0000
  H   H42       1.0  0.26100  0.16000  0.94100  1.0000
  H   H43       1.0  0.76100  0.34000  0.44100  1.0000
  H   H44       1.0  0.73900  0.84000  0.05900  1.0000
  H   H45       1.0  0.35200  0.78400  0.61600  1.0000
  H   H46       1.0  0.14800  0.28400  0.88400  1.0000
  H   H47       1.0  0.64800  0.21600  0.38400  1.0000
  H   H48       1.0  0.85200  0.71600  0.11600  1.0000
  H   H49       1.0  0.15400  0.75500  0.63200  1.0000
  H   H50       1.0  0.34600  0.25500  0.86800  1.0000
  H   H51       1.0  0.84600  0.24500  0.36800  1.0000
  H   H52       1.0  0.65400  0.74500  0.13200  1.0000
  H   H53       1.0  0.50800  0.80500  0.82600  1.0000
  H   H54       1.0  0.99200  0.30500  0.67400  1.0000
  H   H55       1.0  0.49200  0.19500  0.17400  1.0000
  H   H56       1.0  0.00769  0.69500  0.32600  1.0000
  H   H57       1.0  0.46700  0.70800  0.91900  1.0000
  H   H58       1.0  0.03340  0.20800  0.58100  1.0000
  H   H59       1.0  0.53300  0.29200  0.08070  1.0000
  H   H60       1.0  0.96700  0.79200  0.41900  1.0000
  H   H61       1.0  0.30000  0.79300  0.83200  1.0000
  H   H62       1.0  0.20000  0.29300  0.66800  1.0000
  H   H63       1.0  0.70000  0.20700  0.16800  1.0000
  H   H64       1.0  0.80000  0.70700  0.33200  1.0000
  H   H65       1.0  0.29800  0.53400  0.84600  1.0000
  H   H66       1.0  0.20200  0.03380  0.65400  1.0000
  H   H67       1.0  0.70200  0.46600  0.15400  1.0000
  H   H68       1.0  0.79800  0.96600  0.34600  1.0000
  H   H69       1.0  0.80600  0.41200  0.72900  1.0000
  H   H70       1.0  0.69400  0.91200  0.77100  1.0000
  H   H71       1.0  0.19400  0.58800  0.27100  1.0000
  H   H72       1.0  0.30600  0.08830  0.22900  1.0000
  H   H73       1.0  0.63300  0.55900  0.98200  1.0000
  H   H74       1.0  0.86700  0.05890  0.51800  1.0000
  H   H75       1.0  0.36700  0.44100  0.01760  1.0000
  H   H76       1.0  0.13300  0.94100  0.48200  1.0000
  H   H77       1.0  0.66000  0.32300  0.90700  1.0000
  H   H78       1.0  0.84000  0.82300  0.59300  1.0000
  H   H79       1.0  0.34000  0.67700  0.09270  1.0000
  H   H80       1.0  0.16000  0.17700  0.40700  1.0000
  H   H81       1.0  0.82500  0.48100  0.01860  1.0000
  H   H82       1.0  0.67500  0.98100  0.48100  1.0000
  H   H83       1.0  0.17500  0.51900  0.98100  1.0000
  H   H84       1.0  0.32500  0.01910  0.51900  1.0000
  H   H85       1.0  0.81400  0.61600  0.96000  1.0000
  H   H86       1.0  0.68600  0.11600  0.54000  1.0000
  H   H87       1.0  0.18600  0.38400  0.04010  1.0000
  H   H88       1.0  0.31400  0.88400  0.46000  1.0000
  H   H89       1.0  0.46800  0.40100  0.86300  1.0000
  H   H90       1.0  0.03210  0.90100  0.63700  1.0000
  H   H91       1.0  0.53200  0.59900  0.13700  1.0000
  H   H92       1.0  0.96800  0.09930  0.36300  1.0000
  H   H93       1.0  0.54100  0.33600  0.76200  1.0000
  H   H94       1.0  0.95900  0.83600  0.73800  1.0000
  H   H95       1.0  0.45900  0.66400  0.23800  1.0000
  H   H96       1.0  0.04110  0.16400  0.26200  1.0000
  H   H97       1.0  0.92000  0.52700  0.80900  1.0000
  H   H98       1.0  0.58000  0.02680  0.69100  1.0000
  H   H99       1.0  0.08040  0.47300  0.19100  1.0000
  H   H100      1.0  0.42000  0.97300  0.30900  1.0000
  N   N1        1.0  0.51600  0.53100  0.59600  1.0000
  N   N2        1.0  0.98400  0.03080  0.90400  1.0000
  N   N3        1.0  0.48400  0.46900  0.40400  1.0000
  N   N4        1.0  0.01630  0.96900  0.09580  1.0000
  Si  Si1       1.0  0.59600  0.57600  0.49200  1.0000
  Si  Si2       1.0  0.90400  0.07640  0.00806  1.0000
  Si  Si3       1.0  0.40400  0.42400  0.50800  1.0000
  Si  Si4       1.0  0.09600  0.92400  0.99200  1.0000
  Si  Si5       1.0  0.56200  0.58900  0.72700  1.0000
  Si  Si6       1.0  0.93800  0.08900  0.77300  1.0000
  Si  Si7       1.0  0.43800  0.41100  0.27300  1.0000
  Si  Si8       1.0  0.06160  0.91100  0.22700  1.0000
