data_image0
_chemical_formula_structural       C28H84Si14
_chemical_formula_sum              "C28 H84 Si14"
_cell_length_a       9.42068
_cell_length_b       9.42068
_cell_length_c       15.7078
_cell_angle_alpha    67.8818
_cell_angle_beta     112.118
_cell_angle_gamma    112.114

_space_group_name_H-M_alt    "P 1"
_space_group_IT_number       1

loop_
  _space_group_symop_operation_xyz
  'x, y, z'

loop_
  _atom_site_type_symbol
  _atom_site_label
  _atom_site_symmetry_multiplicity
  _atom_site_fract_x
  _atom_site_fract_y
  _atom_site_fract_z
  _atom_site_occupancy
  C   C1        1.0  0.94600  0.97600  0.35900  1.0000
  C   C2        1.0  0.97600  0.94600  0.64100  1.0000
  C   C3        1.0  0.21100  0.70000  0.42200  1.0000
  C   C4        1.0  0.70000  0.21100  0.57800  1.0000
  C   C5        1.0  0.50800  0.84000  0.35900  1.0000
  C   C6        1.0  0.84000  0.50800  0.64100  1.0000
  C   C7        1.0  0.53500  0.75700  0.57400  1.0000
  C   C8        1.0  0.75700  0.53500  0.42600  1.0000
  C   C9        1.0  0.26100  0.46600  0.25500  1.0000
  C   C10       1.0  0.46600  0.26100  0.74500  1.0000
  C   C11       1.0  0.37500  0.16500  0.37500  1.0000
  C   C12       1.0  0.16500  0.37500  0.62500  1.0000
  C   C13       1.0  0.88700  0.24500  0.39400  1.0000
  C   C14       1.0  0.24500  0.88700  0.60600  1.0000
  C   C15       1.0  0.89200  0.68700  0.21700  1.0000
  C   C16       1.0  0.68700  0.89200  0.78300  1.0000
  C   C17       1.0  0.60100  0.81400  0.15300  1.0000
  C   C18       1.0  0.81400  0.60100  0.84700  1.0000
  C   C19       1.0  0.84500  0.34900  0.13200  1.0000
  C   C20       1.0  0.34900  0.84500  0.86800  1.0000
  C   C21       1.0  0.82600  0.17800  0.94900  1.0000
  C   C22       1.0  0.17800  0.82600  0.05070  1.0000
  C   C23       1.0  0.09480  0.08930  0.14000  1.0000
  C   C24       1.0  0.08930  0.09480  0.86000  1.0000
  C   C25       1.0  0.54600  0.30600  0.18700  1.0000
  C   C26       1.0  0.30600  0.54600  0.81300  1.0000
  C   C27       1.0  0.50700  0.22400  0.00953  1.0000
  C   C28       1.0  0.22400  0.50700  0.99000  1.0000
  H   H1        1.0  0.90700  0.40200  0.07540  1.0000
  H   H2        1.0  0.40200  0.90700  0.92500  1.0000
  H   H3        1.0  0.84700  0.22400  0.16300  1.0000
  H   H4        1.0  0.22400  0.84700  0.83700  1.0000
  H   H5        1.0  0.91600  0.41100  0.18800  1.0000
  H   H6        1.0  0.41100  0.91600  0.81200  1.0000
  H   H7        1.0  0.30600  0.11500  0.31300  1.0000
  H   H8        1.0  0.11500  0.30600  0.68700  1.0000
  H   H9        1.0  0.49700  0.22400  0.36900  1.0000
  H   H10       1.0  0.22400  0.49700  0.63100  1.0000
  H   H11       1.0  0.79500  0.16200  0.43000  1.0000
  H   H12       1.0  0.16200  0.79500  0.57000  1.0000
  H   H13       1.0  0.37800  0.06610  0.44000  1.0000
  H   H14       1.0  0.06610  0.37800  0.56000  1.0000
  H   H15       1.0  0.18300  0.41300  0.19600  1.0000
  H   H16       1.0  0.41300  0.18300  0.80400  1.0000
  H   H17       1.0  0.21400  0.55700  0.25300  1.0000
  H   H18       1.0  0.55700  0.21400  0.74700  1.0000
  H   H19       1.0  0.38000  0.52500  0.24300  1.0000
  H   H20       1.0  0.52500  0.38000  0.75700  1.0000
  H   H21       1.0  0.93700  0.35200  0.42000  1.0000
  H   H22       1.0  0.35200  0.93700  0.58000  1.0000
  H   H23       1.0  0.82900  0.28000  0.31700  1.0000
  H   H24       1.0  0.28000  0.82900  0.68300  1.0000
  H   H25       1.0  0.52500  0.26600  0.93800  1.0000
  H   H26       1.0  0.26600  0.52500  0.06210  1.0000
  H   H27       1.0  0.49800  0.95800  0.35000  1.0000
  H   H28       1.0  0.95800  0.49800  0.65000  1.0000
  H   H29       1.0  0.63300  0.85200  0.36900  1.0000
  H   H30       1.0  0.85200  0.63300  0.63100  1.0000
  H   H31       1.0  0.13600  0.62600  0.37200  1.0000
  H   H32       1.0  0.62600  0.13600  0.62800  1.0000
  H   H33       1.0  0.16000  0.65700  0.48200  1.0000
  H   H34       1.0  0.65700  0.16000  0.51800  1.0000
  H   H35       1.0  0.03540  0.93500  0.35200  1.0000
  H   H36       1.0  0.93500  0.03540  0.64800  1.0000
  H   H37       1.0  0.87400  0.87300  0.40100  1.0000
  H   H38       1.0  0.87300  0.87400  0.59900  1.0000
  H   H39       1.0  0.86800  0.01240  0.28700  1.0000
  H   H40       1.0  0.01240  0.86800  0.71300  1.0000
  H   H41       1.0  0.20300  0.82300  0.38400  1.0000
  H   H42       1.0  0.82300  0.20300  0.61600  1.0000
  H   H43       1.0  0.38000  0.20400  0.00116  1.0000
  H   H44       1.0  0.20400  0.38000  0.99900  1.0000
  H   H45       1.0  0.42600  0.32200  0.16000  1.0000
  H   H46       1.0  0.32200  0.42600  0.84000  1.0000
  H   H47       1.0  0.53700  0.18000  0.22700  1.0000
  H   H48       1.0  0.18000  0.53700  0.77300  1.0000
  H   H49       1.0  0.53300  0.10700  0.04470  1.0000
  H   H50       1.0  0.10700  0.53300  0.95500  1.0000
  H   H51       1.0  0.61700  0.37900  0.23700  1.0000
  H   H52       1.0  0.37900  0.61700  0.76300  1.0000
  H   H53       1.0  0.13100  0.98600  0.19500  1.0000
  H   H54       1.0  0.98600  0.13100  0.80500  1.0000
  H   H55       1.0  0.20000  0.16900  0.11400  1.0000
  H   H56       1.0  0.16900  0.20000  0.88600  1.0000
  H   H57       1.0  0.71700  0.12500  0.90000  1.0000
  H   H58       1.0  0.12500  0.71700  0.10000  1.0000
  H   H59       1.0  0.06330  0.15200  0.17400  1.0000
  H   H60       1.0  0.15200  0.06330  0.82600  1.0000
  H   H61       1.0  0.83500  0.56200  0.24900  1.0000
  H   H62       1.0  0.56200  0.83500  0.75100  1.0000
  H   H63       1.0  0.93700  0.75100  0.27200  1.0000
  H   H64       1.0  0.75100  0.93700  0.72800  1.0000
  H   H65       1.0  0.57000  0.88700  0.56300  1.0000
  H   H66       1.0  0.88700  0.57000  0.43700  1.0000
  H   H67       1.0  0.64400  0.71800  0.61100  1.0000
  H   H68       1.0  0.71800  0.64400  0.38900  1.0000
  H   H69       1.0  0.56000  0.70600  0.20700  1.0000
  H   H70       1.0  0.70600  0.56000  0.79300  1.0000
  H   H71       1.0  0.49600  0.83900  0.09460  1.0000
  H   H72       1.0  0.83900  0.49600  0.90500  1.0000
  H   H73       1.0  0.99400  0.69000  0.19800  1.0000
  H   H74       1.0  0.69000  0.99400  0.80200  1.0000
  H   H75       1.0  0.65600  0.91300  0.18600  1.0000
  H   H76       1.0  0.91300  0.65600  0.81400  1.0000
  H   H77       1.0  0.46100  0.70200  0.62400  1.0000
  H   H78       1.0  0.70200  0.46100  0.37600  1.0000
  H   H79       1.0  0.90600  0.26900  0.90700  1.0000
  H   H80       1.0  0.26900  0.90600  0.09330  1.0000
  H   H81       1.0  0.79100  0.23700  0.98300  1.0000
  H   H82       1.0  0.23700  0.79100  0.01680  1.0000
  H   H83       1.0  0.43800  0.80800  0.29100  1.0000
  H   H84       1.0  0.80800  0.43800  0.70900  1.0000
  Si  Si1       1.0  0.63400  0.36600  0.08490  1.0000
  Si  Si2       1.0  0.36600  0.63400  0.91500  1.0000
  Si  Si3       1.0  0.42400  0.69400  0.46100  1.0000
  Si  Si4       1.0  0.69400  0.42400  0.53900  1.0000
  Si  Si5       1.0  0.63000  0.63000  0.00000  1.0000
  Si  Si6       1.0  0.74900  0.78600  0.10900  1.0000
  Si  Si7       1.0  0.78600  0.74900  0.89100  1.0000
  Si  Si8       1.0  0.92200  0.01710  0.03990  1.0000
  Si  Si9       1.0  0.01710  0.92200  0.96000  1.0000
  Si  Si10      1.0  0.43100  0.43100  0.50000  1.0000
  Si  Si11      1.0  0.27800  0.31000  0.37500  1.0000
  Si  Si12      1.0  0.31000  0.27800  0.62500  1.0000
  Si  Si13      1.0  0.04330  0.14500  0.41700  1.0000
  Si  Si14      1.0  0.14500  0.04330  0.58300  1.0000
