data_image0
_chemical_formula_structural       CHN
_chemical_formula_sum              "C1 H1 N1"
_cell_length_a       3.64835
_cell_length_b       3.64835
_cell_length_c       3.64835
_cell_angle_alpha    110.547
_cell_angle_beta     108.936
_cell_angle_gamma    108.936

_space_group_name_H-M_alt    "P 1"
_space_group_IT_number       1

loop_
  _space_group_symop_operation_xyz
  'x, y, z'

loop_
  _atom_site_type_symbol
  _atom_site_label
  _atom_site_symmetry_multiplicity
  _atom_site_fract_x
  _atom_site_fract_y
  _atom_site_fract_z
  _atom_site_occupancy
  C   C1        1.0  0.00000  0.99600  0.99600  1.0000
  H   H1        1.0  0.00000  0.25900  0.25900  1.0000
  N   N1        1.0  0.00000  0.71700  0.71700  1.0000
