data_image0
_chemical_formula_structural       B12C2H26N8
_chemical_formula_sum              "B12 C2 H26 N8"
_cell_length_a       6.98234
_cell_length_b       7.14736
_cell_length_c       7.60329
_cell_angle_alpha    98.9307
_cell_angle_beta     109.031
_cell_angle_gamma    93.3448

_space_group_name_H-M_alt    "P 1"
_space_group_IT_number       1

loop_
  _space_group_symop_operation_xyz
  'x, y, z'

loop_
  _atom_site_type_symbol
  _atom_site_label
  _atom_site_symmetry_multiplicity
  _atom_site_fract_x
  _atom_site_fract_y
  _atom_site_fract_z
  _atom_site_occupancy
  B   B1        1.0  0.48000  0.21100  0.92700  1.0000
  B   B2        1.0  0.52000  0.78900  0.07310  1.0000
  B   B3        1.0  0.71600  0.11500  0.99800  1.0000
  B   B4        1.0  0.28400  0.88500  0.00198  1.0000
  B   B5        1.0  0.71800  0.98300  0.17700  1.0000
  B   B6        1.0  0.28200  0.01720  0.82300  1.0000
  B   B7        1.0  0.60000  0.19700  0.16700  1.0000
  B   B8        1.0  0.40000  0.80300  0.83300  1.0000
  B   B9        1.0  0.48000  0.99500  0.21300  1.0000
  B   B10       1.0  0.52000  0.00508  0.78700  1.0000
  B   B11       1.0  0.33300  0.13600  0.05860  1.0000
  B   B12       1.0  0.66700  0.86400  0.94100  1.0000
  C   C1        1.0  0.09790  0.52000  0.30000  1.0000
  C   C2        1.0  0.90200  0.48000  0.70000  1.0000
  H   H1        1.0  0.79000  0.47200  0.15300  1.0000
  H   H2        1.0  0.21000  0.52800  0.84700  1.0000
  H   H3        1.0  0.27700  0.26700  0.59800  1.0000
  H   H4        1.0  0.72300  0.73300  0.40200  1.0000
  H   H5        1.0  0.31300  0.18700  0.39300  1.0000
  H   H6        1.0  0.68700  0.81300  0.60700  1.0000
  H   H7        1.0  0.40700  0.59900  0.41600  1.0000
  H   H8        1.0  0.59300  0.40100  0.58400  1.0000
  H   H9        1.0  0.97000  0.26600  0.32700  1.0000
  H   H10       1.0  0.02960  0.73400  0.67300  1.0000
  H   H11       1.0  0.91400  0.67800  0.12400  1.0000
  H   H12       1.0  0.08590  0.32200  0.87600  1.0000
  H   H13       1.0  0.46800  0.99000  0.36500  1.0000
  H   H14       1.0  0.53200  0.01040  0.63500  1.0000
  H   H15       1.0  0.21500  0.23100  0.10200  1.0000
  H   H16       1.0  0.78500  0.76900  0.89800  1.0000
  H   H17       1.0  0.66600  0.33600  0.28700  1.0000
  H   H18       1.0  0.33400  0.66400  0.71300  1.0000
  H   H19       1.0  0.87200  0.97200  0.30400  1.0000
  H   H20       1.0  0.12800  0.02810  0.69600  1.0000
  H   H21       1.0  0.26800  0.74500  0.26900  1.0000
  H   H22       1.0  0.73200  0.25500  0.73100  1.0000
  H   H23       1.0  0.47200  0.36200  0.87700  1.0000
  H   H24       1.0  0.52800  0.63800  0.12300  1.0000
  H   H25       1.0  0.87100  0.19400  0.99400  1.0000
  H   H26       1.0  0.12900  0.80600  0.00568  1.0000
  N   N1        1.0  0.26800  0.63500  0.34000  1.0000
  N   N2        1.0  0.73200  0.36500  0.66000  1.0000
  N   N3        1.0  0.09910  0.36300  0.37700  1.0000
  N   N4        1.0  0.90100  0.63700  0.62300  1.0000
  N   N5        1.0  0.92100  0.56300  0.18900  1.0000
  N   N6        1.0  0.07940  0.43700  0.81100  1.0000
  N   N7        1.0  0.28600  0.30400  0.47500  1.0000
  N   N8        1.0  0.71400  0.69600  0.52500  1.0000
