data_image0
_chemical_formula_structural       Ga3Ho3Mn3
_chemical_formula_sum              "Ga3 Ho3 Mn3"
_cell_length_a       7.22033
_cell_length_b       7.22033
_cell_length_c       3.84644
_cell_angle_alpha    90
_cell_angle_beta     90
_cell_angle_gamma    120.001

_space_group_name_H-M_alt    "P 1"
_space_group_IT_number       1

loop_
  _space_group_symop_operation_xyz
  'x, y, z'

loop_
  _atom_site_type_symbol
  _atom_site_label
  _atom_site_symmetry_multiplicity
  _atom_site_fract_x
  _atom_site_fract_y
  _atom_site_fract_z
  _atom_site_occupancy
  Ga  Ga1       1.0  0.26000  0.00004  0.00000  1.0000
  Ga  Ga2       1.0  0.00000  0.26000  0.00000  1.0000
  Ga  Ga3       1.0  0.74000  0.74000  0.00000  1.0000
  Ho  Ho1       1.0  0.58900  0.00018  0.50000  1.0000
  Ho  Ho2       1.0  0.41100  0.41100  0.50000  1.0000
  Ho  Ho3       1.0  0.00000  0.58900  0.50000  1.0000
  Mn  Mn1       1.0  0.66700  0.33300  0.00000  1.0000
  Mn  Mn2       1.0  0.33300  0.66700  0.00000  1.0000
  Mn  Mn3       1.0  0.00001  0.00000  0.50000  1.0000
