data_image0
_chemical_formula_structural       C8H4K20N16
_chemical_formula_sum              "C8 H4 K20 N16"
_cell_length_a       8.88269
_cell_length_b       8.88269
_cell_length_c       10.8705
_cell_angle_alpha    90
_cell_angle_beta     90
_cell_angle_gamma    90

_space_group_name_H-M_alt    "P 1"
_space_group_IT_number       1

loop_
  _space_group_symop_operation_xyz
  'x, y, z'

loop_
  _atom_site_type_symbol
  _atom_site_label
  _atom_site_symmetry_multiplicity
  _atom_site_fract_x
  _atom_site_fract_y
  _atom_site_fract_z
  _atom_site_occupancy
  C   C1        1.0  0.10400  0.89600  0.25000  1.0000
  C   C2        1.0  0.39600  0.60400  0.25000  1.0000
  C   C3        1.0  0.60400  0.10400  0.25000  1.0000
  C   C4        1.0  0.89600  0.39600  0.25000  1.0000
  C   C5        1.0  0.89600  0.10400  0.75000  1.0000
  C   C6        1.0  0.60400  0.39600  0.75000  1.0000
  C   C7        1.0  0.39600  0.89600  0.75000  1.0000
  C   C8        1.0  0.10400  0.60400  0.75000  1.0000
  H   H1        1.0  0.75000  0.75000  0.09880  1.0000
  H   H2        1.0  0.25000  0.25000  0.40100  1.0000
  H   H3        1.0  0.25000  0.25000  0.90100  1.0000
  H   H4        1.0  0.75000  0.75000  0.59900  1.0000
  K   K1        1.0  0.85400  0.04110  0.10100  1.0000
  K   K2        1.0  0.64600  0.45900  0.10100  1.0000
  K   K3        1.0  0.35400  0.95900  0.39900  1.0000
  K   K4        1.0  0.14600  0.54100  0.39900  1.0000
  K   K5        1.0  0.95900  0.14600  0.39900  1.0000
  K   K6        1.0  0.54100  0.35400  0.39900  1.0000
  K   K7        1.0  0.04110  0.64600  0.10100  1.0000
  K   K8        1.0  0.45900  0.85400  0.10100  1.0000
  K   K9        1.0  0.14600  0.95900  0.89900  1.0000
  K   K10       1.0  0.35400  0.54100  0.89900  1.0000
  K   K11       1.0  0.64600  0.04110  0.60100  1.0000
  K   K12       1.0  0.85400  0.45900  0.60100  1.0000
  K   K13       1.0  0.04110  0.85400  0.60100  1.0000
  K   K14       1.0  0.45900  0.64600  0.60100  1.0000
  K   K15       1.0  0.95900  0.35400  0.89900  1.0000
  K   K16       1.0  0.54100  0.14600  0.89900  1.0000
  K   K17       1.0  0.25000  0.25000  0.15000  1.0000
  K   K18       1.0  0.75000  0.75000  0.35000  1.0000
  K   K19       1.0  0.75000  0.75000  0.85000  1.0000
  K   K20       1.0  0.25000  0.25000  0.65000  1.0000
  N   N1        1.0  0.15500  0.94600  0.15200  1.0000
  N   N2        1.0  0.34500  0.55400  0.15200  1.0000
  N   N3        1.0  0.65500  0.05380  0.34800  1.0000
  N   N4        1.0  0.84500  0.44600  0.34800  1.0000
  N   N5        1.0  0.05380  0.84500  0.34800  1.0000
  N   N6        1.0  0.44600  0.65500  0.34800  1.0000
  N   N7        1.0  0.94600  0.34500  0.15200  1.0000
  N   N8        1.0  0.55400  0.15500  0.15200  1.0000
  N   N9        1.0  0.84500  0.05380  0.84800  1.0000
  N   N10       1.0  0.65500  0.44600  0.84800  1.0000
  N   N11       1.0  0.34500  0.94600  0.65200  1.0000
  N   N12       1.0  0.15500  0.55400  0.65200  1.0000
  N   N13       1.0  0.94600  0.15500  0.65200  1.0000
  N   N14       1.0  0.55400  0.34500  0.65200  1.0000
  N   N15       1.0  0.05380  0.65500  0.84800  1.0000
  N   N16       1.0  0.44600  0.84500  0.84800  1.0000
