data_image0
_chemical_formula_structural       F6LiNb
_chemical_formula_sum              "F6 Li1 Nb1"
_cell_length_a       4.83273
_cell_length_b       4.83274
_cell_length_c       5.2179
_cell_angle_alpha    117.587
_cell_angle_beta     90
_cell_angle_gamma    60

_space_group_name_H-M_alt    "P 1"
_space_group_IT_number       1

loop_
  _space_group_symop_operation_xyz
  'x, y, z'

loop_
  _atom_site_type_symbol
  _atom_site_label
  _atom_site_symmetry_multiplicity
  _atom_site_fract_x
  _atom_site_fract_y
  _atom_site_fract_z
  _atom_site_occupancy
  F   F1        1.0  0.59400  0.15900  0.25000  1.0000
  F   F2        1.0  0.90800  0.49800  0.25000  1.0000
  F   F3        1.0  0.24700  0.84500  0.25000  1.0000
  F   F4        1.0  0.75300  0.15500  0.75000  1.0000
  F   F5        1.0  0.09170  0.50200  0.75000  1.0000
  F   F6        1.0  0.40600  0.84100  0.75000  1.0000
  Li  Li1       1.0  0.50000  0.00000  0.50000  1.0000
  Nb  Nb1       1.0  0.00000  0.00000  0.00000  1.0000
