data_image0
_chemical_formula_structural       Br6Pu2
_chemical_formula_sum              "Br6 Pu2"
_cell_length_a       4.05279
_cell_length_b       6.97178
_cell_length_c       9.17075
_cell_angle_alpha    90.0019
_cell_angle_beta     90
_cell_angle_gamma    106.897

_space_group_name_H-M_alt    "P 1"
_space_group_IT_number       1

loop_
  _space_group_symop_operation_xyz
  'x, y, z'

loop_
  _atom_site_type_symbol
  _atom_site_label
  _atom_site_symmetry_multiplicity
  _atom_site_fract_x
  _atom_site_fract_y
  _atom_site_fract_z
  _atom_site_occupancy
  Br  Br1       1.0  0.65000  0.30000  0.06700  1.0000
  Br  Br2       1.0  0.91300  0.82500  0.25000  1.0000
  Br  Br3       1.0  0.65000  0.30000  0.43300  1.0000
  Br  Br4       1.0  0.35000  0.70000  0.56700  1.0000
  Br  Br5       1.0  0.08740  0.17500  0.75000  1.0000
  Br  Br6       1.0  0.35000  0.70000  0.93300  1.0000
  Pu  Pu1       1.0  0.26000  0.52100  0.25000  1.0000
  Pu  Pu2       1.0  0.74000  0.47900  0.75000  1.0000
