data_image0
_chemical_formula_structural       Pd6Te4
_chemical_formula_sum              "Pd6 Te4"
_cell_length_a       3.89581
_cell_length_b       6.68787
_cell_length_c       7.9843
_cell_angle_alpha    90
_cell_angle_beta     90
_cell_angle_gamma    73.0666

_space_group_name_H-M_alt    "P 1"
_space_group_IT_number       1

loop_
  _space_group_symop_operation_xyz
  'x, y, z'

loop_
  _atom_site_type_symbol
  _atom_site_label
  _atom_site_symmetry_multiplicity
  _atom_site_fract_x
  _atom_site_fract_y
  _atom_site_fract_z
  _atom_site_occupancy
  Pd  Pd1       1.0  0.33800  0.32500  0.06660  1.0000
  Pd  Pd2       1.0  0.53400  0.93200  0.25000  1.0000
  Pd  Pd3       1.0  0.33800  0.32500  0.43300  1.0000
  Pd  Pd4       1.0  0.66200  0.67500  0.56700  1.0000
  Pd  Pd5       1.0  0.46600  0.06820  0.75000  1.0000
  Pd  Pd6       1.0  0.66200  0.67500  0.93300  1.0000
  Te  Te1       1.0  0.00000  0.00000  0.00000  1.0000
  Te  Te2       1.0  0.74200  0.51600  0.25000  1.0000
  Te  Te3       1.0  0.00000  0.00000  0.50000  1.0000
  Te  Te4       1.0  0.25800  0.48400  0.75000  1.0000
