data_image0
_chemical_formula_structural       B4C4Sm2
_chemical_formula_sum              "B4 C4 Sm2"
_cell_length_a       5.37523
_cell_length_b       5.37523
_cell_length_c       3.71361
_cell_angle_alpha    90
_cell_angle_beta     90
_cell_angle_gamma    90

_space_group_name_H-M_alt    "P 1"
_space_group_IT_number       1

loop_
  _space_group_symop_operation_xyz
  'x, y, z'

loop_
  _atom_site_type_symbol
  _atom_site_label
  _atom_site_symmetry_multiplicity
  _atom_site_fract_x
  _atom_site_fract_y
  _atom_site_fract_z
  _atom_site_occupancy
  B   B1        1.0  0.63700  0.13700  0.50000  1.0000
  B   B2        1.0  0.13700  0.36300  0.50000  1.0000
  B   B3        1.0  0.86300  0.63700  0.50000  1.0000
  B   B4        1.0  0.36300  0.86300  0.50000  1.0000
  C   C1        1.0  0.33900  0.16100  0.50000  1.0000
  C   C2        1.0  0.83900  0.33900  0.50000  1.0000
  C   C3        1.0  0.16100  0.66100  0.50000  1.0000
  C   C4        1.0  0.66100  0.83900  0.50000  1.0000
  Sm  Sm1       1.0  0.00000  0.00000  0.00000  1.0000
  Sm  Sm2       1.0  0.50000  0.50000  0.00000  1.0000
